/*---------------------------------------------------------------------------*\
  =========                 |
  \\      /  F ield         | OpenFOAM: The Open Source CFD Toolbox
   \\    /   O peration     | Website:  https://openfoam.org
    \\  /    A nd           | Version:  11
     \\/     M anipulation  |
\*---------------------------------------------------------------------------*/
Build  : 11
Exec   : foamRun -parallel
Date   : Nov 01 2024
Time   : 04:14:48
Host   : "skynet-linux"
PID    : 33383
I/O    : uncollated
Case   : /home/humberto/casesXCALibre/BFS_3D_5mm_OF11
nProcs : 4
Slaves : 
3
(
"skynet-linux.33384"
"skynet-linux.33385"
"skynet-linux.33386"
)

Pstream initialised with:
    floatTransfer      : false
    nProcsSimpleSum    : 0
    commsType          : nonBlocking
    polling iterations : 0
sigFpe : Enabling floating point exception trapping (FOAM_SIGFPE).
fileModificationChecking : Monitoring run-time modified files using timeStampMaster (fileModificationSkew 10)
allowSystemOperations : Allowing user-supplied system call operations

// * * * * * * * * * * * * * * * * * * * * * * * * * * * * * * * * * * * * * //
Create time

Create mesh for time = 0

Selecting solver incompressibleFluid
Selecting viscosity model constant
Selecting turbulence model type laminar
Selecting laminar stress model Stokes
No MRF models present


SIMPLE: Convergence criteria found
        p: tolerance 1e-07
        U: tolerance 1e-07
        "(k|epsilon|omega|f|v2)": tolerance 1e-07


SIMPLE: Operating solver in steady-state mode with 1 outer corrector
SIMPLE: Operating solver in SIMPLE mode



Starting time loop

Time = 1s

DILUPBiCGStab:  Solving for Ux, Initial residual = 1, Final residual = 0.0712597, No Iterations 3
DILUPBiCGStab:  Solving for Uy, Initial residual = 1, Final residual = 0.0803177, No Iterations 1
DILUPBiCGStab:  Solving for Uz, Initial residual = 1, Final residual = 0.0904606, No Iterations 1
GAMG:  Solving for p, Initial residual = 1, Final residual = 0.0534492, No Iterations 12
time step continuity errors : sum local = 1.5077e-05, global = 1.82496e-06, cumulative = 1.82496e-06
ExecutionTime = 0.93785 s  ClockTime = 1 s

Time = 2s

DILUPBiCGStab:  Solving for Ux, Initial residual = 0.878045, Final residual = 0.0406881, No Iterations 2
DILUPBiCGStab:  Solving for Uy, Initial residual = 0.447262, Final residual = 0.0342003, No Iterations 2
DILUPBiCGStab:  Solving for Uz, Initial residual = 0.379666, Final residual = 0.0306636, No Iterations 1
GAMG:  Solving for p, Initial residual = 0.210738, Final residual = 0.0168461, No Iterations 3
time step continuity errors : sum local = 0.00143247, global = 0.000152303, cumulative = 0.000154128
ExecutionTime = 1.3134 s  ClockTime = 2 s

Time = 3s

DILUPBiCGStab:  Solving for Ux, Initial residual = 0.331939, Final residual = 0.0223107, No Iterations 2
DILUPBiCGStab:  Solving for Uy, Initial residual = 0.336063, Final residual = 0.023052, No Iterations 2
DILUPBiCGStab:  Solving for Uz, Initial residual = 0.396021, Final residual = 0.029262, No Iterations 1
GAMG:  Solving for p, Initial residual = 0.305693, Final residual = 0.0189841, No Iterations 6
time step continuity errors : sum local = 0.000442375, global = -7.19327e-05, cumulative = 8.21953e-05
ExecutionTime = 1.73126 s  ClockTime = 2 s

Time = 4s

DILUPBiCGStab:  Solving for Ux, Initial residual = 0.425054, Final residual = 0.0228193, No Iterations 2
DILUPBiCGStab:  Solving for Uy, Initial residual = 0.349641, Final residual = 0.0299421, No Iterations 1
DILUPBiCGStab:  Solving for Uz, Initial residual = 0.432297, Final residual = 0.030599, No Iterations 1
GAMG:  Solving for p, Initial residual = 0.267422, Final residual = 0.0163264, No Iterations 3
time step continuity errors : sum local = 0.000768428, global = -9.73895e-05, cumulative = -1.51942e-05
ExecutionTime = 2.09346 s  ClockTime = 2 s

Time = 5s

DILUPBiCGStab:  Solving for Ux, Initial residual = 0.608566, Final residual = 0.0286348, No Iterations 2
DILUPBiCGStab:  Solving for Uy, Initial residual = 0.256581, Final residual = 0.0222978, No Iterations 2
DILUPBiCGStab:  Solving for Uz, Initial residual = 0.214526, Final residual = 0.0184254, No Iterations 1
GAMG:  Solving for p, Initial residual = 0.259667, Final residual = 0.0154395, No Iterations 3
time step continuity errors : sum local = 0.00101107, global = -9.14524e-05, cumulative = -0.000106647
ExecutionTime = 2.46408 s  ClockTime = 3 s

Time = 6s

DILUPBiCGStab:  Solving for Ux, Initial residual = 0.472725, Final residual = 0.031688, No Iterations 2
DILUPBiCGStab:  Solving for Uy, Initial residual = 0.340675, Final residual = 0.0321794, No Iterations 2
DILUPBiCGStab:  Solving for Uz, Initial residual = 0.314045, Final residual = 0.0276432, No Iterations 1
GAMG:  Solving for p, Initial residual = 0.263897, Final residual = 0.0139479, No Iterations 4
time step continuity errors : sum local = 0.000498501, global = 9.07679e-05, cumulative = -1.58786e-05
ExecutionTime = 2.85096 s  ClockTime = 3 s

Time = 7s

DILUPBiCGStab:  Solving for Ux, Initial residual = 0.578857, Final residual = 0.0381688, No Iterations 2
DILUPBiCGStab:  Solving for Uy, Initial residual = 0.371765, Final residual = 0.0187458, No Iterations 2
DILUPBiCGStab:  Solving for Uz, Initial residual = 0.463983, Final residual = 0.0432484, No Iterations 1
GAMG:  Solving for p, Initial residual = 0.31044, Final residual = 0.0191351, No Iterations 3
time step continuity errors : sum local = 0.000595256, global = 5.64547e-05, cumulative = 4.05761e-05
ExecutionTime = 3.22185 s  ClockTime = 4 s

Time = 8s

DILUPBiCGStab:  Solving for Ux, Initial residual = 0.724891, Final residual = 0.0396917, No Iterations 2
DILUPBiCGStab:  Solving for Uy, Initial residual = 0.289284, Final residual = 0.0269342, No Iterations 2
DILUPBiCGStab:  Solving for Uz, Initial residual = 0.253874, Final residual = 0.0118942, No Iterations 2
GAMG:  Solving for p, Initial residual = 0.334091, Final residual = 0.0198453, No Iterations 3
time step continuity errors : sum local = 0.000585088, global = 5.00194e-05, cumulative = 9.05955e-05
ExecutionTime = 3.60226 s  ClockTime = 4 s

Time = 9s

DILUPBiCGStab:  Solving for Ux, Initial residual = 0.414305, Final residual = 0.0250937, No Iterations 2
DILUPBiCGStab:  Solving for Uy, Initial residual = 0.351303, Final residual = 0.0277943, No Iterations 2
DILUPBiCGStab:  Solving for Uz, Initial residual = 0.325186, Final residual = 0.0202248, No Iterations 2
GAMG:  Solving for p, Initial residual = 0.609426, Final residual = 0.030459, No Iterations 4
time step continuity errors : sum local = 0.00040421, global = -1.69639e-05, cumulative = 7.36316e-05
ExecutionTime = 3.9967 s  ClockTime = 4 s

Time = 10s

DILUPBiCGStab:  Solving for Ux, Initial residual = 0.328497, Final residual = 0.0217901, No Iterations 2
DILUPBiCGStab:  Solving for Uy, Initial residual = 0.262232, Final residual = 0.0161636, No Iterations 2
DILUPBiCGStab:  Solving for Uz, Initial residual = 0.359252, Final residual = 0.0256836, No Iterations 2
GAMG:  Solving for p, Initial residual = 0.291695, Final residual = 0.0234947, No Iterations 3
time step continuity errors : sum local = 0.000642764, global = -5.34596e-05, cumulative = 2.0172e-05
ExecutionTime = 4.37918 s  ClockTime = 5 s

Time = 11s

DILUPBiCGStab:  Solving for Ux, Initial residual = 0.351939, Final residual = 0.0222026, No Iterations 2
DILUPBiCGStab:  Solving for Uy, Initial residual = 0.228433, Final residual = 0.0181577, No Iterations 2
DILUPBiCGStab:  Solving for Uz, Initial residual = 0.22745, Final residual = 0.0039532, No Iterations 3
GAMG:  Solving for p, Initial residual = 0.282335, Final residual = 0.0169475, No Iterations 3
time step continuity errors : sum local = 0.000505324, global = -4.55034e-05, cumulative = -2.53313e-05
ExecutionTime = 4.77646 s  ClockTime = 5 s

Time = 12s

DILUPBiCGStab:  Solving for Ux, Initial residual = 0.234485, Final residual = 0.0138761, No Iterations 2
DILUPBiCGStab:  Solving for Uy, Initial residual = 0.344158, Final residual = 0.0282176, No Iterations 2
DILUPBiCGStab:  Solving for Uz, Initial residual = 0.291269, Final residual = 0.0203734, No Iterations 2
GAMG:  Solving for p, Initial residual = 0.45998, Final residual = 0.0204797, No Iterations 4
time step continuity errors : sum local = 0.0003527, global = -1.87919e-05, cumulative = -4.41232e-05
ExecutionTime = 5.17273 s  ClockTime = 5 s

Time = 13s

DILUPBiCGStab:  Solving for Ux, Initial residual = 0.483644, Final residual = 0.031525, No Iterations 2
DILUPBiCGStab:  Solving for Uy, Initial residual = 0.30396, Final residual = 0.0150181, No Iterations 2
DILUPBiCGStab:  Solving for Uz, Initial residual = 0.368521, Final residual = 0.016237, No Iterations 2
GAMG:  Solving for p, Initial residual = 0.319505, Final residual = 0.0302336, No Iterations 3
time step continuity errors : sum local = 0.000742454, global = 2.94619e-05, cumulative = -1.46612e-05
ExecutionTime = 5.55256 s  ClockTime = 6 s

Time = 14s

DILUPBiCGStab:  Solving for Ux, Initial residual = 0.613147, Final residual = 0.0363448, No Iterations 2
DILUPBiCGStab:  Solving for Uy, Initial residual = 0.24512, Final residual = 0.00719633, No Iterations 2
DILUPBiCGStab:  Solving for Uz, Initial residual = 0.271646, Final residual = 0.0158075, No Iterations 2
GAMG:  Solving for p, Initial residual = 0.323431, Final residual = 0.0188622, No Iterations 3
time step continuity errors : sum local = 0.000411081, global = 2.71004e-05, cumulative = 1.24391e-05
ExecutionTime = 5.95007 s  ClockTime = 6 s

Time = 15s

DILUPBiCGStab:  Solving for Ux, Initial residual = 0.49921, Final residual = 0.0293805, No Iterations 2
DILUPBiCGStab:  Solving for Uy, Initial residual = 0.373366, Final residual = 0.0293793, No Iterations 2
DILUPBiCGStab:  Solving for Uz, Initial residual = 0.334321, Final residual = 0.0232075, No Iterations 2
GAMG:  Solving for p, Initial residual = 0.548674, Final residual = 0.0229763, No Iterations 4
time step continuity errors : sum local = 0.000304871, global = 2.15703e-05, cumulative = 3.40094e-05
ExecutionTime = 6.34673 s  ClockTime = 7 s

Time = 16s

DILUPBiCGStab:  Solving for Ux, Initial residual = 0.258225, Final residual = 0.0168461, No Iterations 2
DILUPBiCGStab:  Solving for Uy, Initial residual = 0.24859, Final residual = 0.0174607, No Iterations 2
DILUPBiCGStab:  Solving for Uz, Initial residual = 0.311884, Final residual = 0.0102661, No Iterations 2
GAMG:  Solving for p, Initial residual = 0.420731, Final residual = 0.0248648, No Iterations 4
time step continuity errors : sum local = 0.000404461, global = 3.16307e-05, cumulative = 6.56401e-05
ExecutionTime = 6.7546 s  ClockTime = 7 s

Time = 17s

DILUPBiCGStab:  Solving for Ux, Initial residual = 0.220322, Final residual = 0.0143406, No Iterations 2
DILUPBiCGStab:  Solving for Uy, Initial residual = 0.196835, Final residual = 0.0136491, No Iterations 2
DILUPBiCGStab:  Solving for Uz, Initial residual = 0.267084, Final residual = 0.013807, No Iterations 2
GAMG:  Solving for p, Initial residual = 0.355857, Final residual = 0.0289343, No Iterations 3
time step continuity errors : sum local = 0.000518071, global = -1.81037e-05, cumulative = 4.75364e-05
ExecutionTime = 7.13473 s  ClockTime = 7 s

Time = 18s

DILUPBiCGStab:  Solving for Ux, Initial residual = 0.225517, Final residual = 0.0164482, No Iterations 2
DILUPBiCGStab:  Solving for Uy, Initial residual = 0.289754, Final residual = 0.020629, No Iterations 2
DILUPBiCGStab:  Solving for Uz, Initial residual = 0.299222, Final residual = 0.0113041, No Iterations 2
GAMG:  Solving for p, Initial residual = 0.493144, Final residual = 0.0394272, No Iterations 3
time step continuity errors : sum local = 0.000521341, global = 1.45856e-05, cumulative = 6.21219e-05
ExecutionTime = 7.52344 s  ClockTime = 8 s

Time = 19s

DILUPBiCGStab:  Solving for Ux, Initial residual = 0.321952, Final residual = 0.0200395, No Iterations 2
DILUPBiCGStab:  Solving for Uy, Initial residual = 0.277854, Final residual = 0.0257057, No Iterations 2
DILUPBiCGStab:  Solving for Uz, Initial residual = 0.290911, Final residual = 0.0252623, No Iterations 2
GAMG:  Solving for p, Initial residual = 0.497554, Final residual = 0.028588, No Iterations 4
time step continuity errors : sum local = 0.000399361, global = -1.71484e-05, cumulative = 4.49735e-05
ExecutionTime = 7.91944 s  ClockTime = 8 s

Time = 20s

DILUPBiCGStab:  Solving for Ux, Initial residual = 0.468255, Final residual = 0.0273525, No Iterations 2
DILUPBiCGStab:  Solving for Uy, Initial residual = 0.203781, Final residual = 0.00214903, No Iterations 3
DILUPBiCGStab:  Solving for Uz, Initial residual = 0.273012, Final residual = 0.0197857, No Iterations 2
GAMG:  Solving for p, Initial residual = 0.351617, Final residual = 0.0179636, No Iterations 4
time step continuity errors : sum local = 0.000288544, global = -2.18069e-06, cumulative = 4.27928e-05
ExecutionTime = 8.3327 s  ClockTime = 9 s

Time = 21s

DILUPBiCGStab:  Solving for Ux, Initial residual = 0.52071, Final residual = 0.0406594, No Iterations 2
DILUPBiCGStab:  Solving for Uy, Initial residual = 0.308306, Final residual = 0.0271783, No Iterations 2
DILUPBiCGStab:  Solving for Uz, Initial residual = 0.31735, Final residual = 0.0188899, No Iterations 2
GAMG:  Solving for p, Initial residual = 0.453204, Final residual = 0.0248793, No Iterations 3
time step continuity errors : sum local = 0.000290921, global = -8.89174e-06, cumulative = 3.39011e-05
ExecutionTime = 8.71203 s  ClockTime = 9 s

Time = 22s

DILUPBiCGStab:  Solving for Ux, Initial residual = 0.32388, Final residual = 0.0207301, No Iterations 2
DILUPBiCGStab:  Solving for Uy, Initial residual = 0.272033, Final residual = 0.0230307, No Iterations 2
DILUPBiCGStab:  Solving for Uz, Initial residual = 0.268428, Final residual = 0.0203011, No Iterations 2
GAMG:  Solving for p, Initial residual = 0.70053, Final residual = 0.0619831, No Iterations 3
time step continuity errors : sum local = 0.000609469, global = -5.90133e-06, cumulative = 2.79998e-05
ExecutionTime = 9.09312 s  ClockTime = 9 s

Time = 23s

DILUPBiCGStab:  Solving for Ux, Initial residual = 0.156056, Final residual = 0.00738625, No Iterations 2
DILUPBiCGStab:  Solving for Uy, Initial residual = 0.183798, Final residual = 0.0125806, No Iterations 2
DILUPBiCGStab:  Solving for Uz, Initial residual = 0.245185, Final residual = 0.0132487, No Iterations 2
GAMG:  Solving for p, Initial residual = 0.574492, Final residual = 0.0422614, No Iterations 4
time step continuity errors : sum local = 0.000390687, global = 1.13013e-05, cumulative = 3.93011e-05
ExecutionTime = 9.49556 s  ClockTime = 10 s

Time = 24s

DILUPBiCGStab:  Solving for Ux, Initial residual = 0.168747, Final residual = 0.0123156, No Iterations 2
DILUPBiCGStab:  Solving for Uy, Initial residual = 0.236027, Final residual = 0.0171295, No Iterations 2
DILUPBiCGStab:  Solving for Uz, Initial residual = 0.309968, Final residual = 0.0174996, No Iterations 2
GAMG:  Solving for p, Initial residual = 0.561974, Final residual = 0.0452346, No Iterations 3
time step continuity errors : sum local = 0.000383152, global = 1.81768e-05, cumulative = 5.74779e-05
ExecutionTime = 9.87628 s  ClockTime = 10 s

Time = 25s

DILUPBiCGStab:  Solving for Ux, Initial residual = 0.289371, Final residual = 0.0177451, No Iterations 2
DILUPBiCGStab:  Solving for Uy, Initial residual = 0.262469, Final residual = 0.0197758, No Iterations 2
DILUPBiCGStab:  Solving for Uz, Initial residual = 0.269996, Final residual = 0.0198687, No Iterations 2
GAMG:  Solving for p, Initial residual = 0.712226, Final residual = 0.0637564, No Iterations 3
time step continuity errors : sum local = 0.0005986, global = 1.51294e-05, cumulative = 7.26072e-05
ExecutionTime = 10.2559 s  ClockTime = 11 s

Time = 26s

DILUPBiCGStab:  Solving for Ux, Initial residual = 0.36628, Final residual = 0.0229774, No Iterations 2
DILUPBiCGStab:  Solving for Uy, Initial residual = 0.203197, Final residual = 0.0121206, No Iterations 2
DILUPBiCGStab:  Solving for Uz, Initial residual = 0.241322, Final residual = 0.0121988, No Iterations 2
GAMG:  Solving for p, Initial residual = 0.579152, Final residual = 0.0454368, No Iterations 4
time step continuity errors : sum local = 0.000411725, global = -5.87464e-06, cumulative = 6.67326e-05
ExecutionTime = 10.6515 s  ClockTime = 11 s

Time = 27s

DILUPBiCGStab:  Solving for Ux, Initial residual = 0.426677, Final residual = 0.0289403, No Iterations 2
DILUPBiCGStab:  Solving for Uy, Initial residual = 0.239929, Final residual = 0.0195619, No Iterations 2
DILUPBiCGStab:  Solving for Uz, Initial residual = 0.277733, Final residual = 0.0149844, No Iterations 2
GAMG:  Solving for p, Initial residual = 0.407893, Final residual = 0.0390299, No Iterations 3
time step continuity errors : sum local = 0.000432306, global = -1.3687e-06, cumulative = 6.53639e-05
ExecutionTime = 11.0336 s  ClockTime = 11 s

Time = 28s

DILUPBiCGStab:  Solving for Ux, Initial residual = 0.463081, Final residual = 0.0292712, No Iterations 2
DILUPBiCGStab:  Solving for Uy, Initial residual = 0.287778, Final residual = 0.0205818, No Iterations 2
DILUPBiCGStab:  Solving for Uz, Initial residual = 0.247053, Final residual = 0.0166795, No Iterations 2
GAMG:  Solving for p, Initial residual = 0.477446, Final residual = 0.0293182, No Iterations 3
time step continuity errors : sum local = 0.00037327, global = -1.39865e-05, cumulative = 5.13774e-05
ExecutionTime = 11.4176 s  ClockTime = 12 s

Time = 29s

DILUPBiCGStab:  Solving for Ux, Initial residual = 0.253348, Final residual = 0.0163359, No Iterations 2
DILUPBiCGStab:  Solving for Uy, Initial residual = 0.192662, Final residual = 0.00639379, No Iterations 2
DILUPBiCGStab:  Solving for Uz, Initial residual = 0.19885, Final residual = 0.0108485, No Iterations 2
GAMG:  Solving for p, Initial residual = 0.480427, Final residual = 0.0401239, No Iterations 4
time step continuity errors : sum local = 0.00045152, global = -1.52853e-06, cumulative = 4.98489e-05
ExecutionTime = 11.8226 s  ClockTime = 12 s

Time = 30s

DILUPBiCGStab:  Solving for Ux, Initial residual = 0.157796, Final residual = 0.0108259, No Iterations 2
DILUPBiCGStab:  Solving for Uy, Initial residual = 0.18599, Final residual = 0.0152542, No Iterations 2
DILUPBiCGStab:  Solving for Uz, Initial residual = 0.249729, Final residual = 0.0143429, No Iterations 2
GAMG:  Solving for p, Initial residual = 0.56034, Final residual = 0.03204, No Iterations 4
time step continuity errors : sum local = 0.000252857, global = -5.38444e-06, cumulative = 4.44644e-05
ExecutionTime = 12.2193 s  ClockTime = 13 s

Time = 31s

DILUPBiCGStab:  Solving for Ux, Initial residual = 0.297066, Final residual = 0.0183764, No Iterations 2
DILUPBiCGStab:  Solving for Uy, Initial residual = 0.257887, Final residual = 0.0183119, No Iterations 2
DILUPBiCGStab:  Solving for Uz, Initial residual = 0.231378, Final residual = 0.0184787, No Iterations 2
GAMG:  Solving for p, Initial residual = 0.459678, Final residual = 0.0308263, No Iterations 3
time step continuity errors : sum local = 0.000401361, global = 1.47634e-05, cumulative = 5.92278e-05
ExecutionTime = 12.601 s  ClockTime = 13 s

Time = 32s

DILUPBiCGStab:  Solving for Ux, Initial residual = 0.306795, Final residual = 0.0200562, No Iterations 2
DILUPBiCGStab:  Solving for Uy, Initial residual = 0.206874, Final residual = 0.0152937, No Iterations 2
DILUPBiCGStab:  Solving for Uz, Initial residual = 0.1936, Final residual = 0.0121104, No Iterations 2
GAMG:  Solving for p, Initial residual = 0.50403, Final residual = 0.0413388, No Iterations 4
time step continuity errors : sum local = 0.000450888, global = 3.05367e-06, cumulative = 6.22815e-05
ExecutionTime = 12.9989 s  ClockTime = 13 s

Time = 33s

DILUPBiCGStab:  Solving for Ux, Initial residual = 0.347438, Final residual = 0.0232414, No Iterations 2
DILUPBiCGStab:  Solving for Uy, Initial residual = 0.1914, Final residual = 0.0103545, No Iterations 2
DILUPBiCGStab:  Solving for Uz, Initial residual = 0.247957, Final residual = 0.013003, No Iterations 2
GAMG:  Solving for p, Initial residual = 0.460893, Final residual = 0.0302081, No Iterations 4
time step continuity errors : sum local = 0.000278297, global = 8.82514e-07, cumulative = 6.3164e-05
ExecutionTime = 13.402 s  ClockTime = 14 s

Time = 34s

DILUPBiCGStab:  Solving for Ux, Initial residual = 0.452893, Final residual = 0.0268727, No Iterations 2
DILUPBiCGStab:  Solving for Uy, Initial residual = 0.258339, Final residual = 0.0192935, No Iterations 2
DILUPBiCGStab:  Solving for Uz, Initial residual = 0.223663, Final residual = 0.014487, No Iterations 2
GAMG:  Solving for p, Initial residual = 0.366637, Final residual = 0.0357232, No Iterations 2
time step continuity errors : sum local = 0.000492122, global = -1.57319e-05, cumulative = 4.74321e-05
ExecutionTime = 13.7685 s  ClockTime = 14 s

Time = 35s

DILUPBiCGStab:  Solving for Ux, Initial residual = 0.319766, Final residual = 0.0172572, No Iterations 2
DILUPBiCGStab:  Solving for Uy, Initial residual = 0.203743, Final residual = 0.0136873, No Iterations 2
DILUPBiCGStab:  Solving for Uz, Initial residual = 0.165476, Final residual = 0.0111229, No Iterations 2
GAMG:  Solving for p, Initial residual = 0.373512, Final residual = 0.0269307, No Iterations 4
time step continuity errors : sum local = 0.000381393, global = -3.48535e-06, cumulative = 4.39468e-05
ExecutionTime = 14.1632 s  ClockTime = 14 s

Time = 36s

DILUPBiCGStab:  Solving for Ux, Initial residual = 0.158429, Final residual = 0.0110694, No Iterations 2
DILUPBiCGStab:  Solving for Uy, Initial residual = 0.156513, Final residual = 0.00261879, No Iterations 3
DILUPBiCGStab:  Solving for Uz, Initial residual = 0.219629, Final residual = 0.0169569, No Iterations 2
GAMG:  Solving for p, Initial residual = 0.623271, Final residual = 0.0475293, No Iterations 4
time step continuity errors : sum local = 0.000333891, global = -6.68598e-07, cumulative = 4.32782e-05
ExecutionTime = 14.5766 s  ClockTime = 15 s

Time = 37s

DILUPBiCGStab:  Solving for Ux, Initial residual = 0.250419, Final residual = 0.0183537, No Iterations 2
DILUPBiCGStab:  Solving for Uy, Initial residual = 0.220175, Final residual = 0.0185877, No Iterations 2
DILUPBiCGStab:  Solving for Uz, Initial residual = 0.226391, Final residual = 0.0132763, No Iterations 2
GAMG:  Solving for p, Initial residual = 0.431726, Final residual = 0.0412759, No Iterations 2
time step continuity errors : sum local = 0.000478866, global = 1.34128e-05, cumulative = 5.66909e-05
ExecutionTime = 14.9418 s  ClockTime = 15 s

Time = 38s

DILUPBiCGStab:  Solving for Ux, Initial residual = 0.273963, Final residual = 0.0159684, No Iterations 2
DILUPBiCGStab:  Solving for Uy, Initial residual = 0.200181, Final residual = 0.0144091, No Iterations 2
DILUPBiCGStab:  Solving for Uz, Initial residual = 0.172177, Final residual = 0.0115599, No Iterations 2
GAMG:  Solving for p, Initial residual = 0.455615, Final residual = 0.0277285, No Iterations 4
time step continuity errors : sum local = 0.000333647, global = -2.56951e-06, cumulative = 5.41214e-05
ExecutionTime = 15.3376 s  ClockTime = 16 s

Time = 39s

DILUPBiCGStab:  Solving for Ux, Initial residual = 0.254415, Final residual = 0.0180727, No Iterations 2
DILUPBiCGStab:  Solving for Uy, Initial residual = 0.161073, Final residual = 0.0106836, No Iterations 2
DILUPBiCGStab:  Solving for Uz, Initial residual = 0.21462, Final residual = 0.00732612, No Iterations 2
GAMG:  Solving for p, Initial residual = 0.702656, Final residual = 0.0557064, No Iterations 4
time step continuity errors : sum local = 0.000330336, global = -1.0721e-05, cumulative = 4.34004e-05
ExecutionTime = 15.7404 s  ClockTime = 16 s

Time = 40s

DILUPBiCGStab:  Solving for Ux, Initial residual = 0.365649, Final residual = 0.025128, No Iterations 2
DILUPBiCGStab:  Solving for Uy, Initial residual = 0.219977, Final residual = 0.0214767, No Iterations 2
DILUPBiCGStab:  Solving for Uz, Initial residual = 0.215653, Final residual = 0.0139754, No Iterations 2
GAMG:  Solving for p, Initial residual = 0.421906, Final residual = 0.0300162, No Iterations 3
time step continuity errors : sum local = 0.000318484, global = -1.1091e-05, cumulative = 3.23093e-05
ExecutionTime = 16.1212 s  ClockTime = 16 s

Time = 41s

DILUPBiCGStab:  Solving for Ux, Initial residual = 0.270706, Final residual = 0.0156039, No Iterations 2
DILUPBiCGStab:  Solving for Uy, Initial residual = 0.205532, Final residual = 0.0146675, No Iterations 2
DILUPBiCGStab:  Solving for Uz, Initial residual = 0.17533, Final residual = 0.0126158, No Iterations 2
GAMG:  Solving for p, Initial residual = 0.383415, Final residual = 0.0206749, No Iterations 4
time step continuity errors : sum local = 0.000276085, global = -1.5175e-05, cumulative = 1.71343e-05
ExecutionTime = 16.5157 s  ClockTime = 17 s

Time = 42s

DILUPBiCGStab:  Solving for Ux, Initial residual = 0.171556, Final residual = 0.014854, No Iterations 2
DILUPBiCGStab:  Solving for Uy, Initial residual = 0.151814, Final residual = 0.00270418, No Iterations 3
DILUPBiCGStab:  Solving for Uz, Initial residual = 0.19607, Final residual = 0.0152924, No Iterations 2
GAMG:  Solving for p, Initial residual = 0.421616, Final residual = 0.030949, No Iterations 4
time step continuity errors : sum local = 0.000329806, global = -9.15138e-06, cumulative = 7.98291e-06
ExecutionTime = 16.9294 s  ClockTime = 17 s

Time = 43s

DILUPBiCGStab:  Solving for Ux, Initial residual = 0.198705, Final residual = 0.0158883, No Iterations 2
DILUPBiCGStab:  Solving for Uy, Initial residual = 0.193281, Final residual = 0.0162511, No Iterations 2
DILUPBiCGStab:  Solving for Uz, Initial residual = 0.235466, Final residual = 0.0143534, No Iterations 2
GAMG:  Solving for p, Initial residual = 0.565695, Final residual = 0.0467329, No Iterations 3
time step continuity errors : sum local = 0.000368194, global = 4.20537e-06, cumulative = 1.21883e-05
ExecutionTime = 17.3095 s  ClockTime = 18 s

Time = 44s

DILUPBiCGStab:  Solving for Ux, Initial residual = 0.25531, Final residual = 0.0152267, No Iterations 2
DILUPBiCGStab:  Solving for Uy, Initial residual = 0.198503, Final residual = 0.0147031, No Iterations 2
DILUPBiCGStab:  Solving for Uz, Initial residual = 0.206211, Final residual = 0.0157482, No Iterations 2
GAMG:  Solving for p, Initial residual = 0.431346, Final residual = 0.0349447, No Iterations 3
time step continuity errors : sum local = 0.000426472, global = 2.02601e-05, cumulative = 3.24484e-05
ExecutionTime = 17.6901 s  ClockTime = 18 s

Time = 45s

DILUPBiCGStab:  Solving for Ux, Initial residual = 0.259592, Final residual = 0.0168442, No Iterations 2
DILUPBiCGStab:  Solving for Uy, Initial residual = 0.141901, Final residual = 0.00957245, No Iterations 2
DILUPBiCGStab:  Solving for Uz, Initial residual = 0.169813, Final residual = 0.0106639, No Iterations 2
GAMG:  Solving for p, Initial residual = 0.412135, Final residual = 0.0285674, No Iterations 4
time step continuity errors : sum local = 0.000309479, global = 6.2524e-06, cumulative = 3.87008e-05
ExecutionTime = 18.0853 s  ClockTime = 18 s

Time = 46s

DILUPBiCGStab:  Solving for Ux, Initial residual = 0.272117, Final residual = 0.0167913, No Iterations 2
DILUPBiCGStab:  Solving for Uy, Initial residual = 0.180108, Final residual = 0.0151661, No Iterations 2
DILUPBiCGStab:  Solving for Uz, Initial residual = 0.222203, Final residual = 0.0138554, No Iterations 2
GAMG:  Solving for p, Initial residual = 0.527234, Final residual = 0.025925, No Iterations 4
time step continuity errors : sum local = 0.000190664, global = 1.43259e-06, cumulative = 4.01334e-05
ExecutionTime = 18.4805 s  ClockTime = 19 s

Time = 47s

DILUPBiCGStab:  Solving for Ux, Initial residual = 0.29542, Final residual = 0.01704, No Iterations 2
DILUPBiCGStab:  Solving for Uy, Initial residual = 0.209615, Final residual = 0.0163796, No Iterations 2
DILUPBiCGStab:  Solving for Uz, Initial residual = 0.215695, Final residual = 0.0170818, No Iterations 2
GAMG:  Solving for p, Initial residual = 0.353128, Final residual = 0.0260539, No Iterations 3
time step continuity errors : sum local = 0.000368523, global = -1.25419e-05, cumulative = 2.75915e-05
ExecutionTime = 18.8632 s  ClockTime = 19 s

Time = 48s

DILUPBiCGStab:  Solving for Ux, Initial residual = 0.204573, Final residual = 0.0122198, No Iterations 2
DILUPBiCGStab:  Solving for Uy, Initial residual = 0.150589, Final residual = 0.011286, No Iterations 2
DILUPBiCGStab:  Solving for Uz, Initial residual = 0.159605, Final residual = 0.00951633, No Iterations 2
GAMG:  Solving for p, Initial residual = 0.336962, Final residual = 0.0208459, No Iterations 4
time step continuity errors : sum local = 0.00029698, global = -4.12707e-06, cumulative = 2.34644e-05
ExecutionTime = 19.2674 s  ClockTime = 20 s

Time = 49s

DILUPBiCGStab:  Solving for Ux, Initial residual = 0.143577, Final residual = 0.00879037, No Iterations 2
DILUPBiCGStab:  Solving for Uy, Initial residual = 0.168511, Final residual = 0.00208242, No Iterations 3
DILUPBiCGStab:  Solving for Uz, Initial residual = 0.211045, Final residual = 0.013804, No Iterations 2
GAMG:  Solving for p, Initial residual = 0.649183, Final residual = 0.0350085, No Iterations 4
time step continuity errors : sum local = 0.000222779, global = 3.18369e-06, cumulative = 2.66481e-05
ExecutionTime = 19.6883 s  ClockTime = 20 s

Time = 50s

DILUPBiCGStab:  Solving for Ux, Initial residual = 0.225828, Final residual = 0.014964, No Iterations 2
DILUPBiCGStab:  Solving for Uy, Initial residual = 0.207835, Final residual = 0.0189524, No Iterations 2
DILUPBiCGStab:  Solving for Uz, Initial residual = 0.225531, Final residual = 0.0187999, No Iterations 2
GAMG:  Solving for p, Initial residual = 0.381612, Final residual = 0.0251277, No Iterations 3
time step continuity errors : sum local = 0.000311612, global = 4.63795e-06, cumulative = 3.12861e-05
ExecutionTime = 20.0686 s  ClockTime = 20 s

Time = 51s

DILUPBiCGStab:  Solving for Ux, Initial residual = 0.237305, Final residual = 0.0138021, No Iterations 2
DILUPBiCGStab:  Solving for Uy, Initial residual = 0.145178, Final residual = 0.0120584, No Iterations 2
DILUPBiCGStab:  Solving for Uz, Initial residual = 0.156728, Final residual = 0.0127289, No Iterations 2
GAMG:  Solving for p, Initial residual = 0.384295, Final residual = 0.0207508, No Iterations 4
time step continuity errors : sum local = 0.000252323, global = -5.60414e-06, cumulative = 2.56819e-05
ExecutionTime = 20.4638 s  ClockTime = 21 s

Time = 52s

DILUPBiCGStab:  Solving for Ux, Initial residual = 0.193111, Final residual = 0.0120669, No Iterations 2
DILUPBiCGStab:  Solving for Uy, Initial residual = 0.138877, Final residual = 0.0104681, No Iterations 2
DILUPBiCGStab:  Solving for Uz, Initial residual = 0.173011, Final residual = 0.0111303, No Iterations 2
GAMG:  Solving for p, Initial residual = 0.633972, Final residual = 0.038708, No Iterations 4
time step continuity errors : sum local = 0.000223463, global = -4.89067e-08, cumulative = 2.5633e-05
ExecutionTime = 20.8602 s  ClockTime = 21 s

Time = 53s

DILUPBiCGStab:  Solving for Ux, Initial residual = 0.234892, Final residual = 0.0154571, No Iterations 2
DILUPBiCGStab:  Solving for Uy, Initial residual = 0.177417, Final residual = 0.0162194, No Iterations 2
DILUPBiCGStab:  Solving for Uz, Initial residual = 0.194319, Final residual = 0.0159104, No Iterations 2
GAMG:  Solving for p, Initial residual = 0.357697, Final residual = 0.0244572, No Iterations 3
time step continuity errors : sum local = 0.000266256, global = -1.22807e-05, cumulative = 1.33524e-05
ExecutionTime = 21.241 s  ClockTime = 22 s

Time = 54s

DILUPBiCGStab:  Solving for Ux, Initial residual = 0.181198, Final residual = 0.00996557, No Iterations 2
DILUPBiCGStab:  Solving for Uy, Initial residual = 0.143347, Final residual = 0.010573, No Iterations 2
DILUPBiCGStab:  Solving for Uz, Initial residual = 0.147475, Final residual = 0.0105284, No Iterations 2
GAMG:  Solving for p, Initial residual = 0.337848, Final residual = 0.0167297, No Iterations 4
time step continuity errors : sum local = 0.000207381, global = 3.46222e-06, cumulative = 1.68146e-05
ExecutionTime = 21.6376 s  ClockTime = 22 s

Time = 55s

DILUPBiCGStab:  Solving for Ux, Initial residual = 0.115905, Final residual = 0.00734189, No Iterations 2
DILUPBiCGStab:  Solving for Uy, Initial residual = 0.131327, Final residual = 0.00166093, No Iterations 3
DILUPBiCGStab:  Solving for Uz, Initial residual = 0.147483, Final residual = 0.0089834, No Iterations 2
GAMG:  Solving for p, Initial residual = 0.515366, Final residual = 0.031957, No Iterations 4
time step continuity errors : sum local = 0.000225422, global = -9.03467e-07, cumulative = 1.59111e-05
ExecutionTime = 22.0496 s  ClockTime = 22 s

Time = 56s

DILUPBiCGStab:  Solving for Ux, Initial residual = 0.155307, Final residual = 0.00952044, No Iterations 2
DILUPBiCGStab:  Solving for Uy, Initial residual = 0.164473, Final residual = 0.0112594, No Iterations 2
DILUPBiCGStab:  Solving for Uz, Initial residual = 0.174008, Final residual = 0.012533, No Iterations 2
GAMG:  Solving for p, Initial residual = 0.408714, Final residual = 0.0281311, No Iterations 3
time step continuity errors : sum local = 0.000255352, global = 1.19433e-05, cumulative = 2.78544e-05
ExecutionTime = 22.4305 s  ClockTime = 23 s

Time = 57s

DILUPBiCGStab:  Solving for Ux, Initial residual = 0.188107, Final residual = 0.0115635, No Iterations 2
DILUPBiCGStab:  Solving for Uy, Initial residual = 0.137371, Final residual = 0.0117649, No Iterations 2
DILUPBiCGStab:  Solving for Uz, Initial residual = 0.143089, Final residual = 0.0133323, No Iterations 2
GAMG:  Solving for p, Initial residual = 0.37322, Final residual = 0.0323207, No Iterations 3
time step continuity errors : sum local = 0.000336687, global = 1.60285e-05, cumulative = 4.38829e-05
ExecutionTime = 22.8102 s  ClockTime = 23 s

Time = 58s

DILUPBiCGStab:  Solving for Ux, Initial residual = 0.155404, Final residual = 0.0121662, No Iterations 2
DILUPBiCGStab:  Solving for Uy, Initial residual = 0.109052, Final residual = 0.00726627, No Iterations 2
DILUPBiCGStab:  Solving for Uz, Initial residual = 0.118254, Final residual = 0.0106449, No Iterations 2
GAMG:  Solving for p, Initial residual = 0.433427, Final residual = 0.0257256, No Iterations 4
time step continuity errors : sum local = 0.000191086, global = -3.26407e-06, cumulative = 4.06189e-05
ExecutionTime = 23.2072 s  ClockTime = 24 s

Time = 59s

DILUPBiCGStab:  Solving for Ux, Initial residual = 0.167277, Final residual = 0.0111976, No Iterations 2
DILUPBiCGStab:  Solving for Uy, Initial residual = 0.143475, Final residual = 0.0118159, No Iterations 2
DILUPBiCGStab:  Solving for Uz, Initial residual = 0.148242, Final residual = 0.00767708, No Iterations 2
GAMG:  Solving for p, Initial residual = 0.410897, Final residual = 0.0361917, No Iterations 3
time step continuity errors : sum local = 0.000272611, global = -7.81122e-06, cumulative = 3.28076e-05
ExecutionTime = 23.5956 s  ClockTime = 24 s

Time = 60s

DILUPBiCGStab:  Solving for Ux, Initial residual = 0.160689, Final residual = 0.0091442, No Iterations 2
DILUPBiCGStab:  Solving for Uy, Initial residual = 0.130497, Final residual = 0.0102827, No Iterations 2
DILUPBiCGStab:  Solving for Uz, Initial residual = 0.127324, Final residual = 0.00946117, No Iterations 2
GAMG:  Solving for p, Initial residual = 0.323893, Final residual = 0.022993, No Iterations 3
time step continuity errors : sum local = 0.00023432, global = -2.05016e-05, cumulative = 1.2306e-05
ExecutionTime = 23.9794 s  ClockTime = 24 s

Time = 61s

DILUPBiCGStab:  Solving for Ux, Initial residual = 0.116527, Final residual = 0.0073152, No Iterations 2
DILUPBiCGStab:  Solving for Uy, Initial residual = 0.102617, Final residual = 0.00737655, No Iterations 2
DILUPBiCGStab:  Solving for Uz, Initial residual = 0.104587, Final residual = 0.00696655, No Iterations 2
GAMG:  Solving for p, Initial residual = 0.359239, Final residual = 0.0182736, No Iterations 4
time step continuity errors : sum local = 0.000158745, global = 5.23274e-06, cumulative = 1.75388e-05
ExecutionTime = 24.3753 s  ClockTime = 25 s

Time = 62s

DILUPBiCGStab:  Solving for Ux, Initial residual = 0.109357, Final residual = 0.00799017, No Iterations 2
DILUPBiCGStab:  Solving for Uy, Initial residual = 0.128959, Final residual = 0.0101529, No Iterations 2
DILUPBiCGStab:  Solving for Uz, Initial residual = 0.12826, Final residual = 0.00822089, No Iterations 2
GAMG:  Solving for p, Initial residual = 0.490846, Final residual = 0.0465994, No Iterations 3
time step continuity errors : sum local = 0.000284471, global = 4.13887e-06, cumulative = 2.16777e-05
ExecutionTime = 24.757 s  ClockTime = 25 s

Time = 63s

DILUPBiCGStab:  Solving for Ux, Initial residual = 0.140735, Final residual = 0.00834771, No Iterations 2
DILUPBiCGStab:  Solving for Uy, Initial residual = 0.117954, Final residual = 0.00961814, No Iterations 2
DILUPBiCGStab:  Solving for Uz, Initial residual = 0.116907, Final residual = 0.00846368, No Iterations 2
GAMG:  Solving for p, Initial residual = 0.34519, Final residual = 0.0240515, No Iterations 3
time step continuity errors : sum local = 0.000212492, global = 1.79711e-07, cumulative = 2.18574e-05
ExecutionTime = 25.138 s  ClockTime = 25 s

Time = 64s

DILUPBiCGStab:  Solving for Ux, Initial residual = 0.1261, Final residual = 0.00750849, No Iterations 2
DILUPBiCGStab:  Solving for Uy, Initial residual = 0.0945225, Final residual = 0.00665438, No Iterations 2
DILUPBiCGStab:  Solving for Uz, Initial residual = 0.0926704, Final residual = 0.00651118, No Iterations 2
GAMG:  Solving for p, Initial residual = 0.368821, Final residual = 0.0362816, No Iterations 3
time step continuity errors : sum local = 0.000266974, global = 1.19303e-05, cumulative = 3.37876e-05
ExecutionTime = 25.5186 s  ClockTime = 26 s

Time = 65s

DILUPBiCGStab:  Solving for Ux, Initial residual = 0.107655, Final residual = 0.00742093, No Iterations 2
DILUPBiCGStab:  Solving for Uy, Initial residual = 0.107925, Final residual = 0.0074056, No Iterations 2
DILUPBiCGStab:  Solving for Uz, Initial residual = 0.101137, Final residual = 0.00679936, No Iterations 2
GAMG:  Solving for p, Initial residual = 0.57591, Final residual = 0.0264791, No Iterations 4
time step continuity errors : sum local = 0.000112492, global = 3.55241e-06, cumulative = 3.73401e-05
ExecutionTime = 25.9151 s  ClockTime = 26 s

Time = 66s

DILUPBiCGStab:  Solving for Ux, Initial residual = 0.131786, Final residual = 0.00761577, No Iterations 2
DILUPBiCGStab:  Solving for Uy, Initial residual = 0.112761, Final residual = 0.00894638, No Iterations 2
DILUPBiCGStab:  Solving for Uz, Initial residual = 0.105604, Final residual = 0.0080423, No Iterations 2
GAMG:  Solving for p, Initial residual = 0.309725, Final residual = 0.0216763, No Iterations 3
time step continuity errors : sum local = 0.000176713, global = -1.1088e-05, cumulative = 2.62521e-05
ExecutionTime = 26.2959 s  ClockTime = 27 s

Time = 67s

DILUPBiCGStab:  Solving for Ux, Initial residual = 0.110525, Final residual = 0.00604829, No Iterations 2
DILUPBiCGStab:  Solving for Uy, Initial residual = 0.0880192, Final residual = 0.00620222, No Iterations 2
DILUPBiCGStab:  Solving for Uz, Initial residual = 0.0844452, Final residual = 0.00589982, No Iterations 2
GAMG:  Solving for p, Initial residual = 0.305148, Final residual = 0.0252298, No Iterations 3
time step continuity errors : sum local = 0.000200455, global = -8.70276e-06, cumulative = 1.75493e-05
ExecutionTime = 26.6764 s  ClockTime = 27 s

Time = 68s

DILUPBiCGStab:  Solving for Ux, Initial residual = 0.0748851, Final residual = 0.00519872, No Iterations 2
DILUPBiCGStab:  Solving for Uy, Initial residual = 0.0970685, Final residual = 0.00725011, No Iterations 2
DILUPBiCGStab:  Solving for Uz, Initial residual = 0.0862815, Final residual = 0.00583752, No Iterations 2
GAMG:  Solving for p, Initial residual = 0.601983, Final residual = 0.0270378, No Iterations 4
time step continuity errors : sum local = 0.000102512, global = 2.59316e-06, cumulative = 2.01425e-05
ExecutionTime = 27.0738 s  ClockTime = 27 s

Time = 69s

DILUPBiCGStab:  Solving for Ux, Initial residual = 0.100735, Final residual = 0.00629184, No Iterations 2
DILUPBiCGStab:  Solving for Uy, Initial residual = 0.105391, Final residual = 0.00574372, No Iterations 2
DILUPBiCGStab:  Solving for Uz, Initial residual = 0.089427, Final residual = 0.00637063, No Iterations 2
GAMG:  Solving for p, Initial residual = 0.342735, Final residual = 0.0254792, No Iterations 3
time step continuity errors : sum local = 0.000173487, global = 6.18945e-06, cumulative = 2.63319e-05
ExecutionTime = 27.4623 s  ClockTime = 28 s

Time = 70s

DILUPBiCGStab:  Solving for Ux, Initial residual = 0.0967697, Final residual = 0.00578537, No Iterations 2
DILUPBiCGStab:  Solving for Uy, Initial residual = 0.082539, Final residual = 0.00647627, No Iterations 2
DILUPBiCGStab:  Solving for Uz, Initial residual = 0.072537, Final residual = 0.0061176, No Iterations 2
GAMG:  Solving for p, Initial residual = 0.331011, Final residual = 0.0230137, No Iterations 3
time step continuity errors : sum local = 0.000147353, global = -1.3878e-07, cumulative = 2.61932e-05
ExecutionTime = 27.8529 s  ClockTime = 28 s

Time = 71s

DILUPBiCGStab:  Solving for Ux, Initial residual = 0.0663104, Final residual = 0.00437549, No Iterations 2
DILUPBiCGStab:  Solving for Uy, Initial residual = 0.0878639, Final residual = 0.00634175, No Iterations 2
DILUPBiCGStab:  Solving for Uz, Initial residual = 0.073859, Final residual = 0.00498666, No Iterations 2
GAMG:  Solving for p, Initial residual = 0.601278, Final residual = 0.0248253, No Iterations 4
time step continuity errors : sum local = 8.33102e-05, global = -4.08733e-06, cumulative = 2.21058e-05
ExecutionTime = 28.2473 s  ClockTime = 29 s

Time = 72s

DILUPBiCGStab:  Solving for Ux, Initial residual = 0.0977829, Final residual = 0.00685128, No Iterations 2
DILUPBiCGStab:  Solving for Uy, Initial residual = 0.0932239, Final residual = 0.00638433, No Iterations 2
DILUPBiCGStab:  Solving for Uz, Initial residual = 0.0755844, Final residual = 0.00397866, No Iterations 2
GAMG:  Solving for p, Initial residual = 0.318261, Final residual = 0.0266915, No Iterations 3
time step continuity errors : sum local = 0.000172004, global = -2.14447e-06, cumulative = 1.99613e-05
ExecutionTime = 28.6377 s  ClockTime = 29 s

Time = 73s

DILUPBiCGStab:  Solving for Ux, Initial residual = 0.081066, Final residual = 0.00468242, No Iterations 2
DILUPBiCGStab:  Solving for Uy, Initial residual = 0.0816573, Final residual = 0.00133527, No Iterations 3
DILUPBiCGStab:  Solving for Uz, Initial residual = 0.0655597, Final residual = 0.00447906, No Iterations 2
GAMG:  Solving for p, Initial residual = 0.289275, Final residual = 0.0197493, No Iterations 3
time step continuity errors : sum local = 0.000120678, global = 2.75195e-06, cumulative = 2.27133e-05
ExecutionTime = 29.0356 s  ClockTime = 29 s

Time = 74s

DILUPBiCGStab:  Solving for Ux, Initial residual = 0.0539776, Final residual = 0.00362292, No Iterations 2
DILUPBiCGStab:  Solving for Uy, Initial residual = 0.086229, Final residual = 0.00593014, No Iterations 2
DILUPBiCGStab:  Solving for Uz, Initial residual = 0.0669423, Final residual = 0.00460523, No Iterations 2
GAMG:  Solving for p, Initial residual = 0.511999, Final residual = 0.0473566, No Iterations 3
time step continuity errors : sum local = 0.00015715, global = -8.02011e-06, cumulative = 1.46932e-05
ExecutionTime = 29.418 s  ClockTime = 30 s

Time = 75s

DILUPBiCGStab:  Solving for Ux, Initial residual = 0.0712418, Final residual = 0.0039062, No Iterations 2
DILUPBiCGStab:  Solving for Uy, Initial residual = 0.0862345, Final residual = 0.00574259, No Iterations 2
DILUPBiCGStab:  Solving for Uz, Initial residual = 0.0600872, Final residual = 0.000931169, No Iterations 3
GAMG:  Solving for p, Initial residual = 0.353449, Final residual = 0.0334758, No Iterations 3
time step continuity errors : sum local = 0.000172349, global = 3.21401e-06, cumulative = 1.79072e-05
ExecutionTime = 29.8205 s  ClockTime = 30 s

Time = 76s

DILUPBiCGStab:  Solving for Ux, Initial residual = 0.0712831, Final residual = 0.00404832, No Iterations 2
DILUPBiCGStab:  Solving for Uy, Initial residual = 0.0741885, Final residual = 0.00528724, No Iterations 2
DILUPBiCGStab:  Solving for Uz, Initial residual = 0.0543338, Final residual = 0.00411488, No Iterations 2
GAMG:  Solving for p, Initial residual = 0.311716, Final residual = 0.0222494, No Iterations 3
time step continuity errors : sum local = 0.000117731, global = 6.03611e-06, cumulative = 2.39433e-05
ExecutionTime = 30.2016 s  ClockTime = 31 s

Time = 77s

DILUPBiCGStab:  Solving for Ux, Initial residual = 0.0539899, Final residual = 0.00393974, No Iterations 2
DILUPBiCGStab:  Solving for Uy, Initial residual = 0.0751348, Final residual = 0.00261479, No Iterations 2
DILUPBiCGStab:  Solving for Uz, Initial residual = 0.0549692, Final residual = 0.00398569, No Iterations 2
GAMG:  Solving for p, Initial residual = 0.397756, Final residual = 0.0265376, No Iterations 3
time step continuity errors : sum local = 9.85998e-05, global = 3.32992e-06, cumulative = 2.72732e-05
ExecutionTime = 30.59 s  ClockTime = 31 s

Time = 78s

DILUPBiCGStab:  Solving for Ux, Initial residual = 0.0595332, Final residual = 0.00362183, No Iterations 2
DILUPBiCGStab:  Solving for Uy, Initial residual = 0.0763129, Final residual = 0.00567343, No Iterations 2
DILUPBiCGStab:  Solving for Uz, Initial residual = 0.0512529, Final residual = 0.00351007, No Iterations 2
GAMG:  Solving for p, Initial residual = 0.410439, Final residual = 0.0349252, No Iterations 3
time step continuity errors : sum local = 0.000132098, global = -3.37634e-06, cumulative = 2.38969e-05
ExecutionTime = 30.9748 s  ClockTime = 31 s

Time = 79s

DILUPBiCGStab:  Solving for Ux, Initial residual = 0.0560076, Final residual = 0.00330687, No Iterations 2
DILUPBiCGStab:  Solving for Uy, Initial residual = 0.068995, Final residual = 0.00489117, No Iterations 2
DILUPBiCGStab:  Solving for Uz, Initial residual = 0.0455006, Final residual = 0.00321833, No Iterations 2
GAMG:  Solving for p, Initial residual = 0.316139, Final residual = 0.0247329, No Iterations 3
time step continuity errors : sum local = 0.000110666, global = -1.03421e-05, cumulative = 1.35547e-05
ExecutionTime = 31.3547 s  ClockTime = 32 s

Time = 80s

DILUPBiCGStab:  Solving for Ux, Initial residual = 0.0401132, Final residual = 0.00292911, No Iterations 2
DILUPBiCGStab:  Solving for Uy, Initial residual = 0.0705168, Final residual = 0.00495997, No Iterations 2
DILUPBiCGStab:  Solving for Uz, Initial residual = 0.0471811, Final residual = 0.00354235, No Iterations 2
GAMG:  Solving for p, Initial residual = 0.342264, Final residual = 0.0221115, No Iterations 3
time step continuity errors : sum local = 7.99326e-05, global = 3.79025e-07, cumulative = 1.39338e-05
ExecutionTime = 31.736 s  ClockTime = 32 s

Time = 81s

DILUPBiCGStab:  Solving for Ux, Initial residual = 0.0460018, Final residual = 0.00284699, No Iterations 2
DILUPBiCGStab:  Solving for Uy, Initial residual = 0.0738452, Final residual = 0.00558241, No Iterations 2
DILUPBiCGStab:  Solving for Uz, Initial residual = 0.0457522, Final residual = 0.0032165, No Iterations 2
GAMG:  Solving for p, Initial residual = 0.401819, Final residual = 0.0303247, No Iterations 3
time step continuity errors : sum local = 9.69876e-05, global = 1.50179e-06, cumulative = 1.54355e-05
ExecutionTime = 32.1169 s  ClockTime = 32 s

Time = 82s

DILUPBiCGStab:  Solving for Ux, Initial residual = 0.0525652, Final residual = 0.00289032, No Iterations 2
DILUPBiCGStab:  Solving for Uy, Initial residual = 0.0644457, Final residual = 0.00446979, No Iterations 2
DILUPBiCGStab:  Solving for Uz, Initial residual = 0.0396697, Final residual = 0.00297247, No Iterations 2
GAMG:  Solving for p, Initial residual = 0.301684, Final residual = 0.0221542, No Iterations 3
time step continuity errors : sum local = 9.34465e-05, global = 7.82205e-06, cumulative = 2.32576e-05
ExecutionTime = 32.4995 s  ClockTime = 33 s

Time = 83s

DILUPBiCGStab:  Solving for Ux, Initial residual = 0.0432662, Final residual = 0.00262764, No Iterations 2
DILUPBiCGStab:  Solving for Uy, Initial residual = 0.0610993, Final residual = 0.00430107, No Iterations 2
DILUPBiCGStab:  Solving for Uz, Initial residual = 0.0383699, Final residual = 0.000562277, No Iterations 3
GAMG:  Solving for p, Initial residual = 0.301686, Final residual = 0.0183518, No Iterations 3
time step continuity errors : sum local = 6.70608e-05, global = -5.05258e-07, cumulative = 2.27523e-05
ExecutionTime = 32.897 s  ClockTime = 33 s

Time = 84s

DILUPBiCGStab:  Solving for Ux, Initial residual = 0.0376459, Final residual = 0.00236406, No Iterations 2
DILUPBiCGStab:  Solving for Uy, Initial residual = 0.0641594, Final residual = 0.00455163, No Iterations 2
DILUPBiCGStab:  Solving for Uz, Initial residual = 0.0383138, Final residual = 0.00270001, No Iterations 2
GAMG:  Solving for p, Initial residual = 0.452015, Final residual = 0.0301742, No Iterations 3
time step continuity errors : sum local = 7.24746e-05, global = 1.01595e-06, cumulative = 2.37683e-05
ExecutionTime = 33.2782 s  ClockTime = 34 s

Time = 85s

DILUPBiCGStab:  Solving for Ux, Initial residual = 0.0418221, Final residual = 0.00234806, No Iterations 2
DILUPBiCGStab:  Solving for Uy, Initial residual = 0.0609124, Final residual = 0.00413445, No Iterations 2
DILUPBiCGStab:  Solving for Uz, Initial residual = 0.0343318, Final residual = 0.00241102, No Iterations 2
GAMG:  Solving for p, Initial residual = 0.306349, Final residual = 0.0198083, No Iterations 3
time step continuity errors : sum local = 7.0529e-05, global = -3.3853e-06, cumulative = 2.0383e-05
ExecutionTime = 33.6583 s  ClockTime = 34 s

Time = 86s

DILUPBiCGStab:  Solving for Ux, Initial residual = 0.0330938, Final residual = 0.00263132, No Iterations 2
DILUPBiCGStab:  Solving for Uy, Initial residual = 0.0590526, Final residual = 0.00413182, No Iterations 2
DILUPBiCGStab:  Solving for Uz, Initial residual = 0.0336093, Final residual = 0.00258101, No Iterations 2
GAMG:  Solving for p, Initial residual = 0.287314, Final residual = 0.0172072, No Iterations 3
time step continuity errors : sum local = 5.78696e-05, global = -4.51893e-07, cumulative = 1.99311e-05
ExecutionTime = 34.0415 s  ClockTime = 34 s

Time = 87s

DILUPBiCGStab:  Solving for Ux, Initial residual = 0.0290585, Final residual = 0.00182334, No Iterations 2
DILUPBiCGStab:  Solving for Uy, Initial residual = 0.0606153, Final residual = 0.00428508, No Iterations 2
DILUPBiCGStab:  Solving for Uz, Initial residual = 0.0344928, Final residual = 0.00243323, No Iterations 2
GAMG:  Solving for p, Initial residual = 0.423924, Final residual = 0.0262649, No Iterations 3
time step continuity errors : sum local = 5.74358e-05, global = -1.89968e-06, cumulative = 1.80314e-05
ExecutionTime = 34.4217 s  ClockTime = 35 s

Time = 88s

DILUPBiCGStab:  Solving for Ux, Initial residual = 0.0345292, Final residual = 0.00202404, No Iterations 2
DILUPBiCGStab:  Solving for Uy, Initial residual = 0.05581, Final residual = 0.00381358, No Iterations 2
DILUPBiCGStab:  Solving for Uz, Initial residual = 0.0311674, Final residual = 0.00219479, No Iterations 2
GAMG:  Solving for p, Initial residual = 0.309494, Final residual = 0.0193643, No Iterations 3
time step continuity errors : sum local = 5.88588e-05, global = 3.04818e-06, cumulative = 2.10796e-05
ExecutionTime = 34.8039 s  ClockTime = 35 s

Time = 89s

DILUPBiCGStab:  Solving for Ux, Initial residual = 0.0291615, Final residual = 0.00185293, No Iterations 2
DILUPBiCGStab:  Solving for Uy, Initial residual = 0.0501876, Final residual = 0.00341456, No Iterations 2
DILUPBiCGStab:  Solving for Uz, Initial residual = 0.0281357, Final residual = 0.00195114, No Iterations 2
GAMG:  Solving for p, Initial residual = 0.282751, Final residual = 0.0159034, No Iterations 3
time step continuity errors : sum local = 4.7025e-05, global = 6.18328e-07, cumulative = 2.16979e-05
ExecutionTime = 35.1857 s  ClockTime = 35 s

Time = 90s

DILUPBiCGStab:  Solving for Ux, Initial residual = 0.0230321, Final residual = 0.00191634, No Iterations 2
DILUPBiCGStab:  Solving for Uy, Initial residual = 0.0515122, Final residual = 0.00349985, No Iterations 2
DILUPBiCGStab:  Solving for Uz, Initial residual = 0.0283953, Final residual = 0.00194726, No Iterations 2
GAMG:  Solving for p, Initial residual = 0.379198, Final residual = 0.0215647, No Iterations 3
time step continuity errors : sum local = 4.4869e-05, global = 1.66634e-06, cumulative = 2.33643e-05
ExecutionTime = 35.5667 s  ClockTime = 36 s

Time = 91s

DILUPBiCGStab:  Solving for Ux, Initial residual = 0.0274262, Final residual = 0.00182622, No Iterations 2
DILUPBiCGStab:  Solving for Uy, Initial residual = 0.0519618, Final residual = 0.00346847, No Iterations 2
DILUPBiCGStab:  Solving for Uz, Initial residual = 0.0269121, Final residual = 0.00184176, No Iterations 2
GAMG:  Solving for p, Initial residual = 0.289469, Final residual = 0.0196224, No Iterations 3
time step continuity errors : sum local = 5.58499e-05, global = -3.68177e-06, cumulative = 1.96825e-05
ExecutionTime = 35.9469 s  ClockTime = 36 s

Time = 92s

DILUPBiCGStab:  Solving for Ux, Initial residual = 0.0247872, Final residual = 0.00158678, No Iterations 2
DILUPBiCGStab:  Solving for Uy, Initial residual = 0.04991, Final residual = 0.00328209, No Iterations 2
DILUPBiCGStab:  Solving for Uz, Initial residual = 0.0255497, Final residual = 0.00187705, No Iterations 2
GAMG:  Solving for p, Initial residual = 0.256777, Final residual = 0.0138621, No Iterations 3
time step continuity errors : sum local = 4.17256e-05, global = -1.81393e-06, cumulative = 1.78686e-05
ExecutionTime = 36.3281 s  ClockTime = 37 s

Time = 93s

DILUPBiCGStab:  Solving for Ux, Initial residual = 0.0202634, Final residual = 0.00152724, No Iterations 2
DILUPBiCGStab:  Solving for Uy, Initial residual = 0.0496417, Final residual = 0.00326462, No Iterations 2
DILUPBiCGStab:  Solving for Uz, Initial residual = 0.0262407, Final residual = 0.00180098, No Iterations 2
GAMG:  Solving for p, Initial residual = 0.29916, Final residual = 0.0153525, No Iterations 3
time step continuity errors : sum local = 3.72996e-05, global = -1.72775e-06, cumulative = 1.61408e-05
ExecutionTime = 36.7075 s  ClockTime = 37 s

Time = 94s

DILUPBiCGStab:  Solving for Ux, Initial residual = 0.0236306, Final residual = 0.00181469, No Iterations 2
DILUPBiCGStab:  Solving for Uy, Initial residual = 0.0472446, Final residual = 0.00315369, No Iterations 2
DILUPBiCGStab:  Solving for Uz, Initial residual = 0.0252884, Final residual = 0.0017103, No Iterations 2
GAMG:  Solving for p, Initial residual = 0.323149, Final residual = 0.0187065, No Iterations 3
time step continuity errors : sum local = 4.32403e-05, global = 2.16442e-06, cumulative = 1.83052e-05
ExecutionTime = 37.0888 s  ClockTime = 37 s

Time = 95s

DILUPBiCGStab:  Solving for Ux, Initial residual = 0.021866, Final residual = 0.0018898, No Iterations 2
DILUPBiCGStab:  Solving for Uy, Initial residual = 0.0422686, Final residual = 0.00288899, No Iterations 2
DILUPBiCGStab:  Solving for Uz, Initial residual = 0.0230287, Final residual = 0.00154468, No Iterations 2
GAMG:  Solving for p, Initial residual = 0.276229, Final residual = 0.013777, No Iterations 3
time step continuity errors : sum local = 3.49856e-05, global = 1.74112e-06, cumulative = 2.00463e-05
ExecutionTime = 37.4711 s  ClockTime = 38 s

Time = 96s

DILUPBiCGStab:  Solving for Ux, Initial residual = 0.0164497, Final residual = 0.000792871, No Iterations 2
DILUPBiCGStab:  Solving for Uy, Initial residual = 0.0416696, Final residual = 0.00286341, No Iterations 2
DILUPBiCGStab:  Solving for Uz, Initial residual = 0.022434, Final residual = 0.00154117, No Iterations 2
GAMG:  Solving for p, Initial residual = 0.296228, Final residual = 0.0145483, No Iterations 3
time step continuity errors : sum local = 3.15423e-05, global = 2.19923e-06, cumulative = 2.22456e-05
ExecutionTime = 37.8615 s  ClockTime = 38 s

Time = 97s

DILUPBiCGStab:  Solving for Ux, Initial residual = 0.017429, Final residual = 0.000931401, No Iterations 2
DILUPBiCGStab:  Solving for Uy, Initial residual = 0.0432973, Final residual = 0.00289662, No Iterations 2
DILUPBiCGStab:  Solving for Uz, Initial residual = 0.0221106, Final residual = 0.00151861, No Iterations 2
GAMG:  Solving for p, Initial residual = 0.283922, Final residual = 0.0160011, No Iterations 3
time step continuity errors : sum local = 3.66377e-05, global = -1.09497e-06, cumulative = 2.11506e-05
ExecutionTime = 38.2521 s  ClockTime = 39 s

Time = 98s

DILUPBiCGStab:  Solving for Ux, Initial residual = 0.0180141, Final residual = 0.00156502, No Iterations 2
DILUPBiCGStab:  Solving for Uy, Initial residual = 0.0431441, Final residual = 0.00279929, No Iterations 2
DILUPBiCGStab:  Solving for Uz, Initial residual = 0.0211537, Final residual = 0.00141817, No Iterations 2
GAMG:  Solving for p, Initial residual = 0.241689, Final residual = 0.0120194, No Iterations 3
time step continuity errors : sum local = 3.17297e-05, global = -1.93914e-06, cumulative = 1.92115e-05
ExecutionTime = 38.6333 s  ClockTime = 39 s

Time = 99s

DILUPBiCGStab:  Solving for Ux, Initial residual = 0.0160304, Final residual = 0.00122217, No Iterations 2
DILUPBiCGStab:  Solving for Uy, Initial residual = 0.0422564, Final residual = 0.00269033, No Iterations 2
DILUPBiCGStab:  Solving for Uz, Initial residual = 0.0210682, Final residual = 0.00137206, No Iterations 2
GAMG:  Solving for p, Initial residual = 0.240211, Final residual = 0.0104175, No Iterations 3
time step continuity errors : sum local = 2.64607e-05, global = -1.19567e-06, cumulative = 1.80158e-05
ExecutionTime = 39.0134 s  ClockTime = 39 s

Time = 100s

DILUPBiCGStab:  Solving for Ux, Initial residual = 0.0164065, Final residual = 0.00125009, No Iterations 2
DILUPBiCGStab:  Solving for Uy, Initial residual = 0.0402683, Final residual = 0.00257924, No Iterations 2
DILUPBiCGStab:  Solving for Uz, Initial residual = 0.0208589, Final residual = 0.00135908, No Iterations 2
GAMG:  Solving for p, Initial residual = 0.293179, Final residual = 0.0289679, No Iterations 2
time step continuity errors : sum local = 6.03436e-05, global = -5.62537e-07, cumulative = 1.74533e-05
ExecutionTime = 39.3793 s  ClockTime = 40 s

Time = 101s

DILUPBiCGStab:  Solving for Ux, Initial residual = 0.0157275, Final residual = 0.00101536, No Iterations 2
DILUPBiCGStab:  Solving for Uy, Initial residual = 0.0366352, Final residual = 0.00235448, No Iterations 2
DILUPBiCGStab:  Solving for Uz, Initial residual = 0.0196499, Final residual = 0.001264, No Iterations 2
GAMG:  Solving for p, Initial residual = 0.293344, Final residual = 0.0156279, No Iterations 3
time step continuity errors : sum local = 3.16932e-05, global = 2.39831e-06, cumulative = 1.98516e-05
ExecutionTime = 39.7604 s  ClockTime = 40 s

Time = 102s

DILUPBiCGStab:  Solving for Ux, Initial residual = 0.0130335, Final residual = 0.00118606, No Iterations 2
DILUPBiCGStab:  Solving for Uy, Initial residual = 0.0350089, Final residual = 0.00228952, No Iterations 2
DILUPBiCGStab:  Solving for Uz, Initial residual = 0.0190469, Final residual = 0.00123332, No Iterations 2
GAMG:  Solving for p, Initial residual = 0.270307, Final residual = 0.025814, No Iterations 2
time step continuity errors : sum local = 5.34372e-05, global = 2.44301e-07, cumulative = 2.00959e-05
ExecutionTime = 40.1264 s  ClockTime = 40 s

Time = 103s

DILUPBiCGStab:  Solving for Ux, Initial residual = 0.0119416, Final residual = 0.00107413, No Iterations 2
DILUPBiCGStab:  Solving for Uy, Initial residual = 0.035052, Final residual = 0.00223033, No Iterations 2
DILUPBiCGStab:  Solving for Uz, Initial residual = 0.0186202, Final residual = 0.00118377, No Iterations 2
GAMG:  Solving for p, Initial residual = 0.286978, Final residual = 0.0265493, No Iterations 2
time step continuity errors : sum local = 5.09471e-05, global = 4.88748e-07, cumulative = 2.05846e-05
ExecutionTime = 40.4911 s  ClockTime = 41 s

Time = 104s

DILUPBiCGStab:  Solving for Ux, Initial residual = 0.0117409, Final residual = 0.00103466, No Iterations 2
DILUPBiCGStab:  Solving for Uy, Initial residual = 0.0360923, Final residual = 0.00222875, No Iterations 2
DILUPBiCGStab:  Solving for Uz, Initial residual = 0.0184531, Final residual = 0.0011705, No Iterations 2
GAMG:  Solving for p, Initial residual = 0.254669, Final residual = 0.0241576, No Iterations 2
time step continuity errors : sum local = 5.1233e-05, global = 5.78453e-07, cumulative = 2.11631e-05
ExecutionTime = 40.8574 s  ClockTime = 41 s

Time = 105s

DILUPBiCGStab:  Solving for Ux, Initial residual = 0.011607, Final residual = 0.000884433, No Iterations 2
DILUPBiCGStab:  Solving for Uy, Initial residual = 0.0363208, Final residual = 0.00219218, No Iterations 2
DILUPBiCGStab:  Solving for Uz, Initial residual = 0.0183892, Final residual = 0.0011539, No Iterations 2
GAMG:  Solving for p, Initial residual = 0.232268, Final residual = 0.0211844, No Iterations 2
time step continuity errors : sum local = 4.82723e-05, global = 9.11275e-07, cumulative = 2.20743e-05
ExecutionTime = 41.2227 s  ClockTime = 42 s

Time = 106s

DILUPBiCGStab:  Solving for Ux, Initial residual = 0.0112678, Final residual = 0.000806398, No Iterations 2
DILUPBiCGStab:  Solving for Uy, Initial residual = 0.0351307, Final residual = 0.00210654, No Iterations 2
DILUPBiCGStab:  Solving for Uz, Initial residual = 0.0181965, Final residual = 0.00112972, No Iterations 2
GAMG:  Solving for p, Initial residual = 0.229083, Final residual = 0.0196833, No Iterations 2
time step continuity errors : sum local = 4.47505e-05, global = -2.5719e-07, cumulative = 2.18172e-05
ExecutionTime = 41.5898 s  ClockTime = 42 s

Time = 107s

DILUPBiCGStab:  Solving for Ux, Initial residual = 0.0118423, Final residual = 0.000787399, No Iterations 2
DILUPBiCGStab:  Solving for Uy, Initial residual = 0.0333016, Final residual = 0.00200694, No Iterations 2
DILUPBiCGStab:  Solving for Uz, Initial residual = 0.0178834, Final residual = 0.00110439, No Iterations 2
GAMG:  Solving for p, Initial residual = 0.236835, Final residual = 0.0170966, No Iterations 2
time step continuity errors : sum local = 3.75936e-05, global = -9.0751e-07, cumulative = 2.09096e-05
ExecutionTime = 41.9549 s  ClockTime = 42 s

Time = 108s

DILUPBiCGStab:  Solving for Ux, Initial residual = 0.0121847, Final residual = 0.000779782, No Iterations 2
DILUPBiCGStab:  Solving for Uy, Initial residual = 0.0316557, Final residual = 0.00191336, No Iterations 2
DILUPBiCGStab:  Solving for Uz, Initial residual = 0.0174957, Final residual = 0.00106986, No Iterations 2
GAMG:  Solving for p, Initial residual = 0.244931, Final residual = 0.0186391, No Iterations 2
time step continuity errors : sum local = 3.94093e-05, global = -6.36974e-07, cumulative = 2.02727e-05
ExecutionTime = 42.3206 s  ClockTime = 43 s

Time = 109s

DILUPBiCGStab:  Solving for Ux, Initial residual = 0.0117194, Final residual = 0.00076574, No Iterations 2
DILUPBiCGStab:  Solving for Uy, Initial residual = 0.0307793, Final residual = 0.0018605, No Iterations 2
DILUPBiCGStab:  Solving for Uz, Initial residual = 0.0172319, Final residual = 0.00104558, No Iterations 2
GAMG:  Solving for p, Initial residual = 0.248453, Final residual = 0.0194534, No Iterations 2
time step continuity errors : sum local = 3.97638e-05, global = -8.78118e-07, cumulative = 1.93946e-05
ExecutionTime = 42.6856 s  ClockTime = 43 s

Time = 110s

DILUPBiCGStab:  Solving for Ux, Initial residual = 0.0105756, Final residual = 0.000743697, No Iterations 2
DILUPBiCGStab:  Solving for Uy, Initial residual = 0.0310657, Final residual = 0.00186084, No Iterations 2
DILUPBiCGStab:  Solving for Uz, Initial residual = 0.0171354, Final residual = 0.00103373, No Iterations 2
GAMG:  Solving for p, Initial residual = 0.244186, Final residual = 0.0187651, No Iterations 2
time step continuity errors : sum local = 3.83705e-05, global = 4.07514e-07, cumulative = 1.98021e-05
ExecutionTime = 43.0518 s  ClockTime = 43 s

Time = 111s

DILUPBiCGStab:  Solving for Ux, Initial residual = 0.00975153, Final residual = 0.000724359, No Iterations 2
DILUPBiCGStab:  Solving for Uy, Initial residual = 0.0315655, Final residual = 0.00186675, No Iterations 2
DILUPBiCGStab:  Solving for Uz, Initial residual = 0.0171081, Final residual = 0.00102712, No Iterations 2
GAMG:  Solving for p, Initial residual = 0.242106, Final residual = 0.0140421, No Iterations 2
time step continuity errors : sum local = 2.87486e-05, global = 1.17104e-06, cumulative = 2.09731e-05
ExecutionTime = 43.4167 s  ClockTime = 44 s

Time = 112s

DILUPBiCGStab:  Solving for Ux, Initial residual = 0.00935108, Final residual = 0.000668099, No Iterations 2
DILUPBiCGStab:  Solving for Uy, Initial residual = 0.0311188, Final residual = 0.00182401, No Iterations 2
DILUPBiCGStab:  Solving for Uz, Initial residual = 0.016992, Final residual = 0.00100803, No Iterations 2
GAMG:  Solving for p, Initial residual = 0.238089, Final residual = 0.0137462, No Iterations 2
time step continuity errors : sum local = 2.81411e-05, global = 3.83516e-07, cumulative = 2.13566e-05
ExecutionTime = 43.784 s  ClockTime = 44 s

Time = 113s

DILUPBiCGStab:  Solving for Ux, Initial residual = 0.00915291, Final residual = 0.000634725, No Iterations 2
DILUPBiCGStab:  Solving for Uy, Initial residual = 0.0302524, Final residual = 0.00177371, No Iterations 2
DILUPBiCGStab:  Solving for Uz, Initial residual = 0.0169307, Final residual = 0.000994397, No Iterations 2
GAMG:  Solving for p, Initial residual = 0.22994, Final residual = 0.0143848, No Iterations 2
time step continuity errors : sum local = 2.99967e-05, global = 1.04269e-08, cumulative = 2.1367e-05
ExecutionTime = 44.1489 s  ClockTime = 44 s

Time = 114s

DILUPBiCGStab:  Solving for Ux, Initial residual = 0.0092254, Final residual = 0.000610909, No Iterations 2
DILUPBiCGStab:  Solving for Uy, Initial residual = 0.0291152, Final residual = 0.00171607, No Iterations 2
DILUPBiCGStab:  Solving for Uz, Initial residual = 0.0167504, Final residual = 0.000980836, No Iterations 2
GAMG:  Solving for p, Initial residual = 0.223007, Final residual = 0.0125417, No Iterations 2
time step continuity errors : sum local = 2.67095e-05, global = -4.21631e-08, cumulative = 2.13249e-05
ExecutionTime = 44.515 s  ClockTime = 45 s

Time = 115s

DILUPBiCGStab:  Solving for Ux, Initial residual = 0.00939346, Final residual = 0.000601056, No Iterations 2
DILUPBiCGStab:  Solving for Uy, Initial residual = 0.0281962, Final residual = 0.00166112, No Iterations 2
DILUPBiCGStab:  Solving for Uz, Initial residual = 0.0165109, Final residual = 0.000962483, No Iterations 2
GAMG:  Solving for p, Initial residual = 0.221007, Final residual = 0.0112553, No Iterations 2
time step continuity errors : sum local = 2.40292e-05, global = -5.68011e-07, cumulative = 2.07569e-05
ExecutionTime = 44.8801 s  ClockTime = 45 s

Time = 116s

DILUPBiCGStab:  Solving for Ux, Initial residual = 0.00943173, Final residual = 0.000591162, No Iterations 2
DILUPBiCGStab:  Solving for Uy, Initial residual = 0.0277471, Final residual = 0.00162242, No Iterations 2
DILUPBiCGStab:  Solving for Uz, Initial residual = 0.0163105, Final residual = 0.00094946, No Iterations 2
GAMG:  Solving for p, Initial residual = 0.219292, Final residual = 0.0109333, No Iterations 2
time step continuity errors : sum local = 2.34162e-05, global = -3.11018e-07, cumulative = 2.04459e-05
ExecutionTime = 45.2465 s  ClockTime = 46 s

Time = 117s

DILUPBiCGStab:  Solving for Ux, Initial residual = 0.00941777, Final residual = 0.000583947, No Iterations 2
DILUPBiCGStab:  Solving for Uy, Initial residual = 0.0276578, Final residual = 0.00160536, No Iterations 2
DILUPBiCGStab:  Solving for Uz, Initial residual = 0.0161881, Final residual = 0.000937619, No Iterations 2
GAMG:  Solving for p, Initial residual = 0.218673, Final residual = 0.0117699, No Iterations 2
time step continuity errors : sum local = 2.50956e-05, global = -1.64173e-07, cumulative = 2.02817e-05
ExecutionTime = 45.6112 s  ClockTime = 46 s

Time = 118s

DILUPBiCGStab:  Solving for Ux, Initial residual = 0.00936524, Final residual = 0.000578426, No Iterations 2
DILUPBiCGStab:  Solving for Uy, Initial residual = 0.0278232, Final residual = 0.00161083, No Iterations 2
DILUPBiCGStab:  Solving for Uz, Initial residual = 0.0162202, Final residual = 0.000935499, No Iterations 2
GAMG:  Solving for p, Initial residual = 0.220394, Final residual = 0.0126291, No Iterations 2
time step continuity errors : sum local = 2.64809e-05, global = 8.93416e-08, cumulative = 2.0371e-05
ExecutionTime = 45.9776 s  ClockTime = 46 s

Time = 119s

DILUPBiCGStab:  Solving for Ux, Initial residual = 0.00911786, Final residual = 0.000563491, No Iterations 2
DILUPBiCGStab:  Solving for Uy, Initial residual = 0.0275921, Final residual = 0.00159372, No Iterations 2
DILUPBiCGStab:  Solving for Uz, Initial residual = 0.0162236, Final residual = 0.000928392, No Iterations 2
GAMG:  Solving for p, Initial residual = 0.222741, Final residual = 0.0111855, No Iterations 2
time step continuity errors : sum local = 2.30623e-05, global = 2.52201e-07, cumulative = 2.06232e-05
ExecutionTime = 46.3449 s  ClockTime = 47 s

Time = 120s

DILUPBiCGStab:  Solving for Ux, Initial residual = 0.00878705, Final residual = 0.000547425, No Iterations 2
DILUPBiCGStab:  Solving for Uy, Initial residual = 0.0269251, Final residual = 0.00155057, No Iterations 2
DILUPBiCGStab:  Solving for Uz, Initial residual = 0.0161336, Final residual = 0.000915016, No Iterations 2
GAMG:  Solving for p, Initial residual = 0.221472, Final residual = 0.010249, No Iterations 2
time step continuity errors : sum local = 2.11309e-05, global = 6.29697e-07, cumulative = 2.12529e-05
ExecutionTime = 46.7108 s  ClockTime = 47 s

Time = 121s

DILUPBiCGStab:  Solving for Ux, Initial residual = 0.00853779, Final residual = 0.000535373, No Iterations 2
DILUPBiCGStab:  Solving for Uy, Initial residual = 0.0261549, Final residual = 0.00150259, No Iterations 2
DILUPBiCGStab:  Solving for Uz, Initial residual = 0.0160428, Final residual = 0.000905987, No Iterations 2
GAMG:  Solving for p, Initial residual = 0.219876, Final residual = 0.0110888, No Iterations 2
time step continuity errors : sum local = 2.29129e-05, global = 2.39174e-07, cumulative = 2.14921e-05
ExecutionTime = 47.076 s  ClockTime = 47 s

Time = 122s

DILUPBiCGStab:  Solving for Ux, Initial residual = 0.00853796, Final residual = 0.000533916, No Iterations 2
DILUPBiCGStab:  Solving for Uy, Initial residual = 0.0256491, Final residual = 0.00147157, No Iterations 2
DILUPBiCGStab:  Solving for Uz, Initial residual = 0.0160491, Final residual = 0.000910388, No Iterations 2
GAMG:  Solving for p, Initial residual = 0.214148, Final residual = 0.0102888, No Iterations 2
time step continuity errors : sum local = 2.18362e-05, global = 8.43323e-08, cumulative = 2.15764e-05
ExecutionTime = 47.4416 s  ClockTime = 48 s

Time = 123s

DILUPBiCGStab:  Solving for Ux, Initial residual = 0.00861329, Final residual = 0.000529708, No Iterations 2
DILUPBiCGStab:  Solving for Uy, Initial residual = 0.0254158, Final residual = 0.00144945, No Iterations 2
DILUPBiCGStab:  Solving for Uz, Initial residual = 0.0160084, Final residual = 0.000910406, No Iterations 2
GAMG:  Solving for p, Initial residual = 0.208445, Final residual = 0.00875259, No Iterations 2
time step continuity errors : sum local = 1.90885e-05, global = 2.15587e-08, cumulative = 2.1598e-05
ExecutionTime = 47.8061 s  ClockTime = 48 s

Time = 124s

DILUPBiCGStab:  Solving for Ux, Initial residual = 0.00851748, Final residual = 0.000517189, No Iterations 2
DILUPBiCGStab:  Solving for Uy, Initial residual = 0.025282, Final residual = 0.00142721, No Iterations 2
DILUPBiCGStab:  Solving for Uz, Initial residual = 0.0158888, Final residual = 0.000907458, No Iterations 2
GAMG:  Solving for p, Initial residual = 0.205181, Final residual = 0.00867313, No Iterations 2
time step continuity errors : sum local = 1.91148e-05, global = -1.32673e-07, cumulative = 2.14653e-05
ExecutionTime = 48.1722 s  ClockTime = 48 s

Time = 125s

DILUPBiCGStab:  Solving for Ux, Initial residual = 0.00834939, Final residual = 0.000506123, No Iterations 2
DILUPBiCGStab:  Solving for Uy, Initial residual = 0.0252568, Final residual = 0.0014133, No Iterations 2
DILUPBiCGStab:  Solving for Uz, Initial residual = 0.015801, Final residual = 0.000910999, No Iterations 2
GAMG:  Solving for p, Initial residual = 0.203172, Final residual = 0.00869406, No Iterations 2
time step continuity errors : sum local = 1.92432e-05, global = -4.524e-07, cumulative = 2.10129e-05
ExecutionTime = 48.537 s  ClockTime = 49 s

Time = 126s

DILUPBiCGStab:  Solving for Ux, Initial residual = 0.00819165, Final residual = 0.0004964, No Iterations 2
DILUPBiCGStab:  Solving for Uy, Initial residual = 0.0253402, Final residual = 0.00141642, No Iterations 2
DILUPBiCGStab:  Solving for Uz, Initial residual = 0.0158058, Final residual = 0.000914377, No Iterations 2
GAMG:  Solving for p, Initial residual = 0.201229, Final residual = 0.00944263, No Iterations 2
time step continuity errors : sum local = 2.10084e-05, global = -1.13737e-07, cumulative = 2.08992e-05
ExecutionTime = 48.9026 s  ClockTime = 49 s

Time = 127s

DILUPBiCGStab:  Solving for Ux, Initial residual = 0.00825237, Final residual = 0.000492594, No Iterations 2
DILUPBiCGStab:  Solving for Uy, Initial residual = 0.0252272, Final residual = 0.0014097, No Iterations 2
DILUPBiCGStab:  Solving for Uz, Initial residual = 0.0158368, Final residual = 0.000915452, No Iterations 2
GAMG:  Solving for p, Initial residual = 0.201963, Final residual = 0.00902266, No Iterations 2
time step continuity errors : sum local = 1.98834e-05, global = -1.76736e-07, cumulative = 2.07224e-05
ExecutionTime = 49.2688 s  ClockTime = 50 s

Time = 128s

DILUPBiCGStab:  Solving for Ux, Initial residual = 0.00830476, Final residual = 0.000491237, No Iterations 2
DILUPBiCGStab:  Solving for Uy, Initial residual = 0.0246702, Final residual = 0.0013748, No Iterations 2
DILUPBiCGStab:  Solving for Uz, Initial residual = 0.0157956, Final residual = 0.000907442, No Iterations 2
GAMG:  Solving for p, Initial residual = 0.20321, Final residual = 0.0077953, No Iterations 2
time step continuity errors : sum local = 1.69186e-05, global = -1.93049e-07, cumulative = 2.05294e-05
ExecutionTime = 49.6348 s  ClockTime = 50 s

Time = 129s

DILUPBiCGStab:  Solving for Ux, Initial residual = 0.00822485, Final residual = 0.000485335, No Iterations 2
DILUPBiCGStab:  Solving for Uy, Initial residual = 0.0239513, Final residual = 0.00132614, No Iterations 2
DILUPBiCGStab:  Solving for Uz, Initial residual = 0.0156916, Final residual = 0.000900146, No Iterations 2
GAMG:  Solving for p, Initial residual = 0.202283, Final residual = 0.00778091, No Iterations 2
time step continuity errors : sum local = 1.67922e-05, global = 1.21824e-07, cumulative = 2.06512e-05
ExecutionTime = 50.0002 s  ClockTime = 50 s

Time = 130s

DILUPBiCGStab:  Solving for Ux, Initial residual = 0.00806648, Final residual = 0.000475595, No Iterations 2
DILUPBiCGStab:  Solving for Uy, Initial residual = 0.0233545, Final residual = 0.00128629, No Iterations 2
DILUPBiCGStab:  Solving for Uz, Initial residual = 0.0156303, Final residual = 0.000891225, No Iterations 2
GAMG:  Solving for p, Initial residual = 0.200481, Final residual = 0.00811282, No Iterations 2
time step continuity errors : sum local = 1.75086e-05, global = 1.9362e-07, cumulative = 2.08448e-05
ExecutionTime = 50.366 s  ClockTime = 51 s

Time = 131s

DILUPBiCGStab:  Solving for Ux, Initial residual = 0.00781307, Final residual = 0.000468702, No Iterations 2
DILUPBiCGStab:  Solving for Uy, Initial residual = 0.0230451, Final residual = 0.00126275, No Iterations 2
DILUPBiCGStab:  Solving for Uz, Initial residual = 0.0157133, Final residual = 0.000883496, No Iterations 2
GAMG:  Solving for p, Initial residual = 0.197124, Final residual = 0.00884398, No Iterations 2
time step continuity errors : sum local = 1.93143e-05, global = 2.13028e-07, cumulative = 2.10579e-05
ExecutionTime = 50.7321 s  ClockTime = 51 s

Time = 132s

DILUPBiCGStab:  Solving for Ux, Initial residual = 0.00782056, Final residual = 0.000464567, No Iterations 2
DILUPBiCGStab:  Solving for Uy, Initial residual = 0.0230449, Final residual = 0.00125605, No Iterations 2
DILUPBiCGStab:  Solving for Uz, Initial residual = 0.0158145, Final residual = 0.00088371, No Iterations 2
GAMG:  Solving for p, Initial residual = 0.191221, Final residual = 0.0076053, No Iterations 2
time step continuity errors : sum local = 1.70745e-05, global = 2.0457e-07, cumulative = 2.12624e-05
ExecutionTime = 51.0983 s  ClockTime = 51 s

Time = 133s

DILUPBiCGStab:  Solving for Ux, Initial residual = 0.00784605, Final residual = 0.000460633, No Iterations 2
DILUPBiCGStab:  Solving for Uy, Initial residual = 0.0229193, Final residual = 0.0012415, No Iterations 2
DILUPBiCGStab:  Solving for Uz, Initial residual = 0.0157827, Final residual = 0.000873175, No Iterations 2
GAMG:  Solving for p, Initial residual = 0.185923, Final residual = 0.00711559, No Iterations 2
time step continuity errors : sum local = 1.62977e-05, global = 1.02446e-07, cumulative = 2.13649e-05
ExecutionTime = 51.4641 s  ClockTime = 52 s

Time = 134s

DILUPBiCGStab:  Solving for Ux, Initial residual = 0.00780861, Final residual = 0.000457459, No Iterations 2
DILUPBiCGStab:  Solving for Uy, Initial residual = 0.0226827, Final residual = 0.00122374, No Iterations 2
DILUPBiCGStab:  Solving for Uz, Initial residual = 0.015709, Final residual = 0.000863827, No Iterations 2
GAMG:  Solving for p, Initial residual = 0.181782, Final residual = 0.0071916, No Iterations 2
time step continuity errors : sum local = 1.66698e-05, global = 4.45908e-08, cumulative = 2.14095e-05
ExecutionTime = 51.8311 s  ClockTime = 52 s

Time = 135s

DILUPBiCGStab:  Solving for Ux, Initial residual = 0.00774604, Final residual = 0.00045316, No Iterations 2
DILUPBiCGStab:  Solving for Uy, Initial residual = 0.0223373, Final residual = 0.00120598, No Iterations 2
DILUPBiCGStab:  Solving for Uz, Initial residual = 0.0156657, Final residual = 0.000862228, No Iterations 2
GAMG:  Solving for p, Initial residual = 0.178606, Final residual = 0.00690404, No Iterations 2
time step continuity errors : sum local = 1.61546e-05, global = -3.499e-08, cumulative = 2.13745e-05
ExecutionTime = 52.1963 s  ClockTime = 53 s

Time = 136s

DILUPBiCGStab:  Solving for Ux, Initial residual = 0.0077529, Final residual = 0.000451234, No Iterations 2
DILUPBiCGStab:  Solving for Uy, Initial residual = 0.0219517, Final residual = 0.00118634, No Iterations 2
DILUPBiCGStab:  Solving for Uz, Initial residual = 0.0156747, Final residual = 0.000863186, No Iterations 2
GAMG:  Solving for p, Initial residual = 0.176599, Final residual = 0.0064843, No Iterations 2
time step continuity errors : sum local = 1.52185e-05, global = -1.94828e-07, cumulative = 2.11797e-05
ExecutionTime = 52.5615 s  ClockTime = 53 s

Time = 137s

DILUPBiCGStab:  Solving for Ux, Initial residual = 0.00779824, Final residual = 0.000450266, No Iterations 2
DILUPBiCGStab:  Solving for Uy, Initial residual = 0.0215732, Final residual = 0.00116458, No Iterations 2
DILUPBiCGStab:  Solving for Uz, Initial residual = 0.0156851, Final residual = 0.000862134, No Iterations 2
GAMG:  Solving for p, Initial residual = 0.174854, Final residual = 0.00646123, No Iterations 2
time step continuity errors : sum local = 1.51787e-05, global = -1.76057e-07, cumulative = 2.10036e-05
[...]
time step continuity errors : sum local = 5.66916e-05, global = -1.88138e-06, cumulative = -1.02292e-05
ExecutionTime = 172.882 s  ClockTime = 173 s

Time = 467s

DILUPBiCGStab:  Solving for Ux, Initial residual = 0.0116606, Final residual = 0.000684203, No Iterations 2
DILUPBiCGStab:  Solving for Uy, Initial residual = 0.0164525, Final residual = 0.00104717, No Iterations 2
DILUPBiCGStab:  Solving for Uz, Initial residual = 0.0132595, Final residual = 0.000992797, No Iterations 2
GAMG:  Solving for p, Initial residual = 0.229865, Final residual = 0.0114646, No Iterations 2
time step continuity errors : sum local = 5.39731e-05, global = -2.15237e-06, cumulative = -1.23816e-05
ExecutionTime = 173.248 s  ClockTime = 174 s

Time = 468s

DILUPBiCGStab:  Solving for Ux, Initial residual = 0.0118586, Final residual = 0.000699976, No Iterations 2
DILUPBiCGStab:  Solving for Uy, Initial residual = 0.0165504, Final residual = 0.00105289, No Iterations 2
DILUPBiCGStab:  Solving for Uz, Initial residual = 0.0132242, Final residual = 0.000986524, No Iterations 2
GAMG:  Solving for p, Initial residual = 0.2265, Final residual = 0.0114591, No Iterations 2
time step continuity errors : sum local = 5.42125e-05, global = -2.38499e-06, cumulative = -1.47665e-05
ExecutionTime = 173.613 s  ClockTime = 174 s

Time = 469s

DILUPBiCGStab:  Solving for Ux, Initial residual = 0.0120046, Final residual = 0.000707493, No Iterations 2
DILUPBiCGStab:  Solving for Uy, Initial residual = 0.0164723, Final residual = 0.00104714, No Iterations 2
DILUPBiCGStab:  Solving for Uz, Initial residual = 0.0131562, Final residual = 0.00097924, No Iterations 2
GAMG:  Solving for p, Initial residual = 0.223465, Final residual = 0.0116753, No Iterations 2
time step continuity errors : sum local = 5.54728e-05, global = -2.53159e-06, cumulative = -1.72981e-05
ExecutionTime = 173.98 s  ClockTime = 174 s

Time = 470s

DILUPBiCGStab:  Solving for Ux, Initial residual = 0.0121928, Final residual = 0.000711721, No Iterations 2
DILUPBiCGStab:  Solving for Uy, Initial residual = 0.0162416, Final residual = 0.00103019, No Iterations 2
DILUPBiCGStab:  Solving for Uz, Initial residual = 0.0129591, Final residual = 0.000977431, No Iterations 2
GAMG:  Solving for p, Initial residual = 0.219479, Final residual = 0.0123025, No Iterations 2
time step continuity errors : sum local = 5.87323e-05, global = -2.59125e-06, cumulative = -1.98894e-05
ExecutionTime = 174.345 s  ClockTime = 175 s

Time = 471s

DILUPBiCGStab:  Solving for Ux, Initial residual = 0.0126249, Final residual = 0.000725908, No Iterations 2
DILUPBiCGStab:  Solving for Uy, Initial residual = 0.0160359, Final residual = 0.00100137, No Iterations 2
DILUPBiCGStab:  Solving for Uz, Initial residual = 0.012704, Final residual = 0.000959755, No Iterations 2
GAMG:  Solving for p, Initial residual = 0.21386, Final residual = 0.0118911, No Iterations 2
time step continuity errors : sum local = 5.71942e-05, global = -2.2343e-06, cumulative = -2.21237e-05
ExecutionTime = 174.71 s  ClockTime = 175 s

Time = 472s

DILUPBiCGStab:  Solving for Ux, Initial residual = 0.0130228, Final residual = 0.000750824, No Iterations 2
DILUPBiCGStab:  Solving for Uy, Initial residual = 0.0159004, Final residual = 0.000984057, No Iterations 2
DILUPBiCGStab:  Solving for Uz, Initial residual = 0.0123832, Final residual = 0.00094107, No Iterations 2
GAMG:  Solving for p, Initial residual = 0.206624, Final residual = 0.0100301, No Iterations 2
time step continuity errors : sum local = 4.86794e-05, global = -1.77749e-06, cumulative = -2.39012e-05
ExecutionTime = 175.074 s  ClockTime = 175 s

Time = 473s

DILUPBiCGStab:  Solving for Ux, Initial residual = 0.0128966, Final residual = 0.000757149, No Iterations 2
DILUPBiCGStab:  Solving for Uy, Initial residual = 0.0155685, Final residual = 0.00097356, No Iterations 2
DILUPBiCGStab:  Solving for Uz, Initial residual = 0.0120322, Final residual = 0.000915924, No Iterations 2
GAMG:  Solving for p, Initial residual = 0.20089, Final residual = 0.00964473, No Iterations 2
time step continuity errors : sum local = 4.68442e-05, global = 1.36663e-06, cumulative = -2.25345e-05
ExecutionTime = 175.44 s  ClockTime = 176 s

Time = 474s

DILUPBiCGStab:  Solving for Ux, Initial residual = 0.0126099, Final residual = 0.000759582, No Iterations 2
DILUPBiCGStab:  Solving for Uy, Initial residual = 0.0152723, Final residual = 0.000958659, No Iterations 2
DILUPBiCGStab:  Solving for Uz, Initial residual = 0.0117347, Final residual = 0.000892389, No Iterations 2
GAMG:  Solving for p, Initial residual = 0.196154, Final residual = 0.0136566, No Iterations 2
time step continuity errors : sum local = 6.61277e-05, global = 2.75145e-06, cumulative = -1.97831e-05
ExecutionTime = 175.804 s  ClockTime = 176 s

Time = 475s

DILUPBiCGStab:  Solving for Ux, Initial residual = 0.01161, Final residual = 0.000748205, No Iterations 2
DILUPBiCGStab:  Solving for Uy, Initial residual = 0.0153668, Final residual = 0.00096861, No Iterations 2
DILUPBiCGStab:  Solving for Uz, Initial residual = 0.0115799, Final residual = 0.0008908, No Iterations 2
GAMG:  Solving for p, Initial residual = 0.198739, Final residual = 0.0122877, No Iterations 3
time step continuity errors : sum local = 5.76924e-05, global = 2.74468e-06, cumulative = -1.70384e-05
ExecutionTime = 176.185 s  ClockTime = 177 s

Time = 476s

DILUPBiCGStab:  Solving for Ux, Initial residual = 0.0142215, Final residual = 0.000918469, No Iterations 2
DILUPBiCGStab:  Solving for Uy, Initial residual = 0.0164133, Final residual = 0.00103755, No Iterations 2
DILUPBiCGStab:  Solving for Uz, Initial residual = 0.0116799, Final residual = 0.000916009, No Iterations 2
GAMG:  Solving for p, Initial residual = 0.183214, Final residual = 0.00994957, No Iterations 2
time step continuity errors : sum local = 5.42617e-05, global = 2.01412e-06, cumulative = -1.50243e-05
ExecutionTime = 176.549 s  ClockTime = 177 s

Time = 477s

DILUPBiCGStab:  Solving for Ux, Initial residual = 0.0150523, Final residual = 0.0009579, No Iterations 2
DILUPBiCGStab:  Solving for Uy, Initial residual = 0.0158172, Final residual = 0.000997749, No Iterations 2
DILUPBiCGStab:  Solving for Uz, Initial residual = 0.0112498, Final residual = 0.000881392, No Iterations 2
GAMG:  Solving for p, Initial residual = 0.173541, Final residual = 0.0082154, No Iterations 2
time step continuity errors : sum local = 4.67135e-05, global = -1.01627e-07, cumulative = -1.51259e-05
ExecutionTime = 176.916 s  ClockTime = 177 s

Time = 478s

DILUPBiCGStab:  Solving for Ux, Initial residual = 0.0143573, Final residual = 0.000936497, No Iterations 2
DILUPBiCGStab:  Solving for Uy, Initial residual = 0.0152396, Final residual = 0.000953647, No Iterations 2
DILUPBiCGStab:  Solving for Uz, Initial residual = 0.0110543, Final residual = 0.00088894, No Iterations 2
GAMG:  Solving for p, Initial residual = 0.165328, Final residual = 0.00953959, No Iterations 2
time step continuity errors : sum local = 5.48307e-05, global = -3.79711e-06, cumulative = -1.8923e-05
ExecutionTime = 177.28 s  ClockTime = 178 s

Time = 479s

DILUPBiCGStab:  Solving for Ux, Initial residual = 0.0136456, Final residual = 0.000919596, No Iterations 2
DILUPBiCGStab:  Solving for Uy, Initial residual = 0.0147983, Final residual = 0.000918431, No Iterations 2
DILUPBiCGStab:  Solving for Uz, Initial residual = 0.0109256, Final residual = 0.000889263, No Iterations 2
GAMG:  Solving for p, Initial residual = 0.158912, Final residual = 0.0112959, No Iterations 2
time step continuity errors : sum local = 6.56772e-05, global = -4.12788e-06, cumulative = -2.30509e-05
ExecutionTime = 177.647 s  ClockTime = 178 s

Time = 480s

DILUPBiCGStab:  Solving for Ux, Initial residual = 0.012645, Final residual = 0.000906176, No Iterations 2
DILUPBiCGStab:  Solving for Uy, Initial residual = 0.0146176, Final residual = 0.000893688, No Iterations 2
DILUPBiCGStab:  Solving for Uz, Initial residual = 0.0108733, Final residual = 0.000880257, No Iterations 2
GAMG:  Solving for p, Initial residual = 0.156928, Final residual = 0.0107058, No Iterations 2
time step continuity errors : sum local = 6.14391e-05, global = -4.43086e-06, cumulative = -2.74818e-05
ExecutionTime = 178.012 s  ClockTime = 178 s

Time = 481s

DILUPBiCGStab:  Solving for Ux, Initial residual = 0.0118849, Final residual = 0.000870889, No Iterations 2
DILUPBiCGStab:  Solving for Uy, Initial residual = 0.014539, Final residual = 0.000881193, No Iterations 2
DILUPBiCGStab:  Solving for Uz, Initial residual = 0.0108535, Final residual = 0.000860715, No Iterations 2
GAMG:  Solving for p, Initial residual = 0.159192, Final residual = 0.00841552, No Iterations 2
time step continuity errors : sum local = 4.73608e-05, global = -4.3582e-06, cumulative = -3.184e-05
ExecutionTime = 178.378 s  ClockTime = 179 s

Time = 482s

DILUPBiCGStab:  Solving for Ux, Initial residual = 0.0114712, Final residual = 0.00085098, No Iterations 2
DILUPBiCGStab:  Solving for Uy, Initial residual = 0.0143653, Final residual = 0.000864233, No Iterations 2
DILUPBiCGStab:  Solving for Uz, Initial residual = 0.010826, Final residual = 0.000836652, No Iterations 2
GAMG:  Solving for p, Initial residual = 0.158861, Final residual = 0.00776961, No Iterations 2
time step continuity errors : sum local = 4.31386e-05, global = -2.34403e-06, cumulative = -3.4184e-05
ExecutionTime = 178.743 s  ClockTime = 179 s

Time = 483s

DILUPBiCGStab:  Solving for Ux, Initial residual = 0.0111649, Final residual = 0.000834037, No Iterations 2
DILUPBiCGStab:  Solving for Uy, Initial residual = 0.0141154, Final residual = 0.000847756, No Iterations 2
DILUPBiCGStab:  Solving for Uz, Initial residual = 0.0107783, Final residual = 0.000816655, No Iterations 2
GAMG:  Solving for p, Initial residual = 0.157726, Final residual = 0.00874838, No Iterations 2
time step continuity errors : sum local = 4.84643e-05, global = 4.42014e-08, cumulative = -3.41398e-05
ExecutionTime = 179.112 s  ClockTime = 179 s

Time = 484s

DILUPBiCGStab:  Solving for Ux, Initial residual = 0.0108396, Final residual = 0.00080953, No Iterations 2
DILUPBiCGStab:  Solving for Uy, Initial residual = 0.013975, Final residual = 0.000843249, No Iterations 2
DILUPBiCGStab:  Solving for Uz, Initial residual = 0.0107736, Final residual = 0.000804688, No Iterations 2
GAMG:  Solving for p, Initial residual = 0.1567, Final residual = 0.00991447, No Iterations 2
time step continuity errors : sum local = 5.49458e-05, global = 1.24545e-06, cumulative = -3.28944e-05
ExecutionTime = 179.477 s  ClockTime = 180 s

Time = 485s

DILUPBiCGStab:  Solving for Ux, Initial residual = 0.0105953, Final residual = 0.000772009, No Iterations 2
DILUPBiCGStab:  Solving for Uy, Initial residual = 0.0140617, Final residual = 0.00085358, No Iterations 2
DILUPBiCGStab:  Solving for Uz, Initial residual = 0.0108041, Final residual = 0.000802075, No Iterations 2
GAMG:  Solving for p, Initial residual = 0.15597, Final residual = 0.0101684, No Iterations 2
time step continuity errors : sum local = 5.65455e-05, global = 1.96621e-06, cumulative = -3.09282e-05
ExecutionTime = 179.842 s  ClockTime = 180 s

Time = 486s

DILUPBiCGStab:  Solving for Ux, Initial residual = 0.0106005, Final residual = 0.000725919, No Iterations 2
DILUPBiCGStab:  Solving for Uy, Initial residual = 0.0142098, Final residual = 0.000858704, No Iterations 2
DILUPBiCGStab:  Solving for Uz, Initial residual = 0.0108533, Final residual = 0.000805673, No Iterations 2
GAMG:  Solving for p, Initial residual = 0.156231, Final residual = 0.00916445, No Iterations 2
time step continuity errors : sum local = 5.11882e-05, global = 2.23676e-06, cumulative = -2.86914e-05
ExecutionTime = 180.208 s  ClockTime = 181 s

Time = 487s

DILUPBiCGStab:  Solving for Ux, Initial residual = 0.0108112, Final residual = 0.000705657, No Iterations 2
DILUPBiCGStab:  Solving for Uy, Initial residual = 0.0142827, Final residual = 0.000859229, No Iterations 2
DILUPBiCGStab:  Solving for Uz, Initial residual = 0.0109384, Final residual = 0.000809472, No Iterations 2
GAMG:  Solving for p, Initial residual = 0.155815, Final residual = 0.00824462, No Iterations 2
time step continuity errors : sum local = 4.62845e-05, global = 1.96226e-06, cumulative = -2.67291e-05
ExecutionTime = 180.574 s  ClockTime = 181 s

Time = 488s

DILUPBiCGStab:  Solving for Ux, Initial residual = 0.0109312, Final residual = 0.000690629, No Iterations 2
DILUPBiCGStab:  Solving for Uy, Initial residual = 0.0142734, Final residual = 0.000856906, No Iterations 2
DILUPBiCGStab:  Solving for Uz, Initial residual = 0.0110662, Final residual = 0.000823866, No Iterations 2
GAMG:  Solving for p, Initial residual = 0.155861, Final residual = 0.00818516, No Iterations 2
time step continuity errors : sum local = 4.62819e-05, global = 1.60437e-06, cumulative = -2.51248e-05
ExecutionTime = 180.943 s  ClockTime = 181 s

Time = 489s

DILUPBiCGStab:  Solving for Ux, Initial residual = 0.0111173, Final residual = 0.000683693, No Iterations 2
DILUPBiCGStab:  Solving for Uy, Initial residual = 0.0143549, Final residual = 0.000851272, No Iterations 2
DILUPBiCGStab:  Solving for Uz, Initial residual = 0.0112534, Final residual = 0.000847716, No Iterations 2
GAMG:  Solving for p, Initial residual = 0.154659, Final residual = 0.00873496, No Iterations 2
time step continuity errors : sum local = 4.97094e-05, global = 1.03518e-06, cumulative = -2.40896e-05
ExecutionTime = 181.309 s  ClockTime = 182 s

Time = 490s

DILUPBiCGStab:  Solving for Ux, Initial residual = 0.0116037, Final residual = 0.000697371, No Iterations 2
DILUPBiCGStab:  Solving for Uy, Initial residual = 0.0146729, Final residual = 0.000860155, No Iterations 2
DILUPBiCGStab:  Solving for Uz, Initial residual = 0.0115488, Final residual = 0.000877587, No Iterations 2
GAMG:  Solving for p, Initial residual = 0.153595, Final residual = 0.00938119, No Iterations 2
time step continuity errors : sum local = 5.42362e-05, global = 8.15403e-07, cumulative = -2.32742e-05
ExecutionTime = 181.676 s  ClockTime = 182 s

Time = 491s

DILUPBiCGStab:  Solving for Ux, Initial residual = 0.0124469, Final residual = 0.000723448, No Iterations 2
DILUPBiCGStab:  Solving for Uy, Initial residual = 0.015157, Final residual = 0.000882516, No Iterations 2
DILUPBiCGStab:  Solving for Uz, Initial residual = 0.0117794, Final residual = 0.000878018, No Iterations 2
GAMG:  Solving for p, Initial residual = 0.150639, Final residual = 0.00968103, No Iterations 2
time step continuity errors : sum local = 5.74636e-05, global = 5.60598e-07, cumulative = -2.27136e-05
ExecutionTime = 182.043 s  ClockTime = 182 s

Time = 492s

DILUPBiCGStab:  Solving for Ux, Initial residual = 0.0133928, Final residual = 0.000795258, No Iterations 2
DILUPBiCGStab:  Solving for Uy, Initial residual = 0.015644, Final residual = 0.000910996, No Iterations 2
DILUPBiCGStab:  Solving for Uz, Initial residual = 0.0120263, Final residual = 0.000905662, No Iterations 2
GAMG:  Solving for p, Initial residual = 0.14744, Final residual = 0.00867028, No Iterations 2
time step continuity errors : sum local = 5.32817e-05, global = 1.87918e-07, cumulative = -2.25257e-05
ExecutionTime = 182.41 s  ClockTime = 183 s

Time = 493s

DILUPBiCGStab:  Solving for Ux, Initial residual = 0.0140745, Final residual = 0.000884518, No Iterations 2
DILUPBiCGStab:  Solving for Uy, Initial residual = 0.0160082, Final residual = 0.000928648, No Iterations 2
DILUPBiCGStab:  Solving for Uz, Initial residual = 0.0122104, Final residual = 0.000930176, No Iterations 2
GAMG:  Solving for p, Initial residual = 0.146009, Final residual = 0.00749026, No Iterations 2
time step continuity errors : sum local = 4.73892e-05, global = -5.68283e-07, cumulative = -2.30939e-05
ExecutionTime = 182.778 s  ClockTime = 183 s

Time = 494s

DILUPBiCGStab:  Solving for Ux, Initial residual = 0.0141752, Final residual = 0.000938095, No Iterations 2
DILUPBiCGStab:  Solving for Uy, Initial residual = 0.0161052, Final residual = 0.000937676, No Iterations 2
DILUPBiCGStab:  Solving for Uz, Initial residual = 0.0123823, Final residual = 0.000969393, No Iterations 2
GAMG:  Solving for p, Initial residual = 0.145315, Final residual = 0.0073869, No Iterations 2
time step continuity errors : sum local = 4.75687e-05, global = -1.78812e-06, cumulative = -2.48821e-05
ExecutionTime = 183.145 s  ClockTime = 183 s

Time = 495s

DILUPBiCGStab:  Solving for Ux, Initial residual = 0.0140418, Final residual = 0.000976271, No Iterations 2
DILUPBiCGStab:  Solving for Uy, Initial residual = 0.0160688, Final residual = 0.000943421, No Iterations 2
DILUPBiCGStab:  Solving for Uz, Initial residual = 0.0125326, Final residual = 0.000997834, No Iterations 2
GAMG:  Solving for p, Initial residual = 0.145307, Final residual = 0.00749775, No Iterations 2
time step continuity errors : sum local = 4.87653e-05, global = -3.14708e-06, cumulative = -2.80291e-05
ExecutionTime = 183.514 s  ClockTime = 184 s

Time = 496s

DILUPBiCGStab:  Solving for Ux, Initial residual = 0.0136985, Final residual = 0.00103203, No Iterations 2
DILUPBiCGStab:  Solving for Uy, Initial residual = 0.0161041, Final residual = 0.000945698, No Iterations 2
DILUPBiCGStab:  Solving for Uz, Initial residual = 0.0126857, Final residual = 0.00100707, No Iterations 2
GAMG:  Solving for p, Initial residual = 0.146329, Final residual = 0.00774211, No Iterations 2
time step continuity errors : sum local = 5.04842e-05, global = -4.22436e-06, cumulative = -3.22535e-05
ExecutionTime = 183.881 s  ClockTime = 184 s

Time = 497s

DILUPBiCGStab:  Solving for Ux, Initial residual = 0.0132886, Final residual = 0.00115069, No Iterations 2
DILUPBiCGStab:  Solving for Uy, Initial residual = 0.0161599, Final residual = 0.00095403, No Iterations 2
DILUPBiCGStab:  Solving for Uz, Initial residual = 0.0127412, Final residual = 0.00100119, No Iterations 2
GAMG:  Solving for p, Initial residual = 0.148539, Final residual = 0.00890805, No Iterations 2
time step continuity errors : sum local = 5.78201e-05, global = -4.35288e-06, cumulative = -3.66064e-05
ExecutionTime = 184.248 s  ClockTime = 185 s

Time = 498s

DILUPBiCGStab:  Solving for Ux, Initial residual = 0.0128197, Final residual = 0.0011459, No Iterations 2
DILUPBiCGStab:  Solving for Uy, Initial residual = 0.0163255, Final residual = 0.000958914, No Iterations 2
DILUPBiCGStab:  Solving for Uz, Initial residual = 0.012888, Final residual = 0.000985346, No Iterations 2
GAMG:  Solving for p, Initial residual = 0.153314, Final residual = 0.0108729, No Iterations 2
time step continuity errors : sum local = 6.93677e-05, global = -3.44639e-06, cumulative = -4.00528e-05
ExecutionTime = 184.615 s  ClockTime = 185 s

Time = 499s

DILUPBiCGStab:  Solving for Ux, Initial residual = 0.0124576, Final residual = 0.00104831, No Iterations 2
DILUPBiCGStab:  Solving for Uy, Initial residual = 0.0164047, Final residual = 0.000969901, No Iterations 2
DILUPBiCGStab:  Solving for Uz, Initial residual = 0.0130462, Final residual = 0.00098197, No Iterations 2
GAMG:  Solving for p, Initial residual = 0.161345, Final residual = 0.0111796, No Iterations 2
time step continuity errors : sum local = 6.91676e-05, global = -2.55959e-06, cumulative = -4.26124e-05
ExecutionTime = 184.983 s  ClockTime = 185 s

Time = 500s

DILUPBiCGStab:  Solving for Ux, Initial residual = 0.0124387, Final residual = 0.00108794, No Iterations 2
DILUPBiCGStab:  Solving for Uy, Initial residual = 0.0162997, Final residual = 0.000956873, No Iterations 2
DILUPBiCGStab:  Solving for Uz, Initial residual = 0.013204, Final residual = 0.000974088, No Iterations 2
GAMG:  Solving for p, Initial residual = 0.168447, Final residual = 0.00941518, No Iterations 2
time step continuity errors : sum local = 5.65434e-05, global = -1.72619e-06, cumulative = -4.43385e-05
ExecutionTime = 185.557 s  ClockTime = 186 s

End

Finalising parallel run
