/*---------------------------------------------------------------------------*\
  =========                 |
  \\      /  F ield         | OpenFOAM: The Open Source CFD Toolbox
   \\    /   O peration     | Website:  https://openfoam.org
    \\  /    A nd           | Version:  11
     \\/     M anipulation  |
\*---------------------------------------------------------------------------*/
Build  : 11
Exec   : foamRun -parallel
Date   : Nov 01 2024
Time   : 03:46:58
Host   : "skynet-linux"
PID    : 33261
I/O    : uncollated
Case   : /home/humberto/casesXCALibre/BFS_3D_5mm_OF11
nProcs : 4
Slaves : 
3
(
"skynet-linux.33262"
"skynet-linux.33263"
"skynet-linux.33264"
)

Pstream initialised with:
    floatTransfer      : false
    nProcsSimpleSum    : 0
    commsType          : nonBlocking
    polling iterations : 0
sigFpe : Enabling floating point exception trapping (FOAM_SIGFPE).
fileModificationChecking : Monitoring run-time modified files using timeStampMaster (fileModificationSkew 10)
allowSystemOperations : Allowing user-supplied system call operations

// * * * * * * * * * * * * * * * * * * * * * * * * * * * * * * * * * * * * * //
Create time

Create mesh for time = 0

Selecting solver incompressibleFluid
Selecting viscosity model constant
Selecting turbulence model type laminar
Selecting laminar stress model Stokes
No MRF models present


SIMPLE: Convergence criteria found
        p: tolerance 1e-07
        U: tolerance 1e-07
        "(k|epsilon|omega|f|v2)": tolerance 1e-07


SIMPLE: Operating solver in steady-state mode with 1 outer corrector
SIMPLE: Operating solver in SIMPLE mode



Starting time loop

Time = 1s

diagonalPBiCGStab:  Solving for Ux, Initial residual = 1, Final residual = 0.0793449, No Iterations 9
diagonalPBiCGStab:  Solving for Uy, Initial residual = 1, Final residual = 0.0995826, No Iterations 3
diagonalPBiCGStab:  Solving for Uz, Initial residual = 1, Final residual = 0.0757627, No Iterations 3
diagonalPCG:  Solving for p, Initial residual = 1, Final residual = 0.0986011, No Iterations 855
time step continuity errors : sum local = 2.78132e-05, global = 9.83714e-08, cumulative = 9.83714e-08
ExecutionTime = 3.46109 s  ClockTime = 3 s

Time = 2s

diagonalPBiCGStab:  Solving for Ux, Initial residual = 0.878753, Final residual = 0.0565017, No Iterations 3
diagonalPBiCGStab:  Solving for Uy, Initial residual = 0.448002, Final residual = 0.0380763, No Iterations 5
diagonalPBiCGStab:  Solving for Uz, Initial residual = 0.380699, Final residual = 0.0287166, No Iterations 5
diagonalPCG:  Solving for p, Initial residual = 0.211198, Final residual = 0.0208781, No Iterations 555
time step continuity errors : sum local = 0.00179807, global = -2.12739e-05, cumulative = -2.11755e-05
ExecutionTime = 5.53616 s  ClockTime = 5 s

Time = 3s

diagonalPBiCGStab:  Solving for Ux, Initial residual = 0.269041, Final residual = 0.0250085, No Iterations 5
diagonalPBiCGStab:  Solving for Uy, Initial residual = 0.391252, Final residual = 0.0338107, No Iterations 5
diagonalPBiCGStab:  Solving for Uz, Initial residual = 0.501707, Final residual = 0.047806, No Iterations 3
diagonalPCG:  Solving for p, Initial residual = 0.310534, Final residual = 0.0302871, No Iterations 773
time step continuity errors : sum local = 0.000525864, global = 5.00323e-06, cumulative = -1.61723e-05
ExecutionTime = 8.20476 s  ClockTime = 8 s

Time = 4s

diagonalPBiCGStab:  Solving for Ux, Initial residual = 0.514681, Final residual = 0.042801, No Iterations 3
diagonalPBiCGStab:  Solving for Uy, Initial residual = 0.324338, Final residual = 0.0319183, No Iterations 5
diagonalPBiCGStab:  Solving for Uz, Initial residual = 0.386249, Final residual = 0.0328165, No Iterations 3
diagonalPCG:  Solving for p, Initial residual = 0.263413, Final residual = 0.0262425, No Iterations 121
time step continuity errors : sum local = 0.00138155, global = 1.75407e-05, cumulative = 1.36844e-06
ExecutionTime = 8.90543 s  ClockTime = 9 s

Time = 5s

diagonalPBiCGStab:  Solving for Ux, Initial residual = 0.6143, Final residual = 0.0463395, No Iterations 3
diagonalPBiCGStab:  Solving for Uy, Initial residual = 0.234535, Final residual = 0.0221773, No Iterations 4
diagonalPBiCGStab:  Solving for Uz, Initial residual = 0.164913, Final residual = 0.0124028, No Iterations 4
diagonalPCG:  Solving for p, Initial residual = 0.27, Final residual = 0.0266871, No Iterations 551
time step continuity errors : sum local = 0.0013791, global = -2.55246e-06, cumulative = -1.18402e-06
ExecutionTime = 10.9681 s  ClockTime = 11 s

Time = 6s

diagonalPBiCGStab:  Solving for Ux, Initial residual = 0.314202, Final residual = 0.0225774, No Iterations 5
diagonalPBiCGStab:  Solving for Uy, Initial residual = 0.452028, Final residual = 0.0359752, No Iterations 5
diagonalPBiCGStab:  Solving for Uz, Initial residual = 0.491589, Final residual = 0.0392713, No Iterations 5
diagonalPCG:  Solving for p, Initial residual = 0.635466, Final residual = 0.0625101, No Iterations 757
time step continuity errors : sum local = 0.000665537, global = -4.05441e-06, cumulative = -5.23842e-06
ExecutionTime = 13.6731 s  ClockTime = 13 s

Time = 7s

diagonalPBiCGStab:  Solving for Ux, Initial residual = 0.663953, Final residual = 0.063197, No Iterations 3
diagonalPBiCGStab:  Solving for Uy, Initial residual = 0.303972, Final residual = 0.0251751, No Iterations 5
diagonalPBiCGStab:  Solving for Uz, Initial residual = 0.366651, Final residual = 0.0261452, No Iterations 5
diagonalPCG:  Solving for p, Initial residual = 0.298262, Final residual = 0.0298154, No Iterations 349
time step continuity errors : sum local = 0.000887737, global = -6.48789e-05, cumulative = -7.01173e-05
ExecutionTime = 15.1116 s  ClockTime = 15 s

Time = 8s

diagonalPBiCGStab:  Solving for Ux, Initial residual = 0.689546, Final residual = 0.061903, No Iterations 3
diagonalPBiCGStab:  Solving for Uy, Initial residual = 0.280724, Final residual = 0.0201926, No Iterations 5
diagonalPBiCGStab:  Solving for Uz, Initial residual = 0.209743, Final residual = 0.0106775, No Iterations 6
diagonalPCG:  Solving for p, Initial residual = 0.325152, Final residual = 0.0320726, No Iterations 656
time step continuity errors : sum local = 0.000854122, global = -7.76616e-06, cumulative = -7.78834e-05
ExecutionTime = 17.5261 s  ClockTime = 17 s

Time = 9s

diagonalPBiCGStab:  Solving for Ux, Initial residual = 0.303221, Final residual = 0.0276821, No Iterations 4
diagonalPBiCGStab:  Solving for Uy, Initial residual = 0.353599, Final residual = 0.0259739, No Iterations 6
diagonalPBiCGStab:  Solving for Uz, Initial residual = 0.431702, Final residual = 0.0266901, No Iterations 5
diagonalPCG:  Solving for p, Initial residual = 0.33732, Final residual = 0.0330572, No Iterations 761
time step continuity errors : sum local = 0.000590923, global = 5.86133e-06, cumulative = -7.20221e-05
ExecutionTime = 20.2873 s  ClockTime = 20 s

Time = 10s

diagonalPBiCGStab:  Solving for Ux, Initial residual = 0.429104, Final residual = 0.0297812, No Iterations 3
diagonalPBiCGStab:  Solving for Uy, Initial residual = 0.209201, Final residual = 0.00924777, No Iterations 6
diagonalPBiCGStab:  Solving for Uz, Initial residual = 0.256046, Final residual = 0.0247703, No Iterations 4
diagonalPCG:  Solving for p, Initial residual = 0.258667, Final residual = 0.0253368, No Iterations 717
time step continuity errors : sum local = 0.000832512, global = 3.63256e-06, cumulative = -6.83896e-05
ExecutionTime = 22.8755 s  ClockTime = 23 s

Time = 11s

diagonalPBiCGStab:  Solving for Ux, Initial residual = 0.272538, Final residual = 0.0257518, No Iterations 3
diagonalPBiCGStab:  Solving for Uy, Initial residual = 0.280149, Final residual = 0.0262117, No Iterations 6
diagonalPBiCGStab:  Solving for Uz, Initial residual = 0.258768, Final residual = 0.0202522, No Iterations 5
diagonalPCG:  Solving for p, Initial residual = 0.318777, Final residual = 0.0318399, No Iterations 705
time step continuity errors : sum local = 0.00056013, global = 5.09507e-06, cumulative = -6.32945e-05
ExecutionTime = 25.4273 s  ClockTime = 25 s

Time = 12s

diagonalPBiCGStab:  Solving for Ux, Initial residual = 0.475292, Final residual = 0.0316206, No Iterations 4
diagonalPBiCGStab:  Solving for Uy, Initial residual = 0.345584, Final residual = 0.0292717, No Iterations 5
diagonalPBiCGStab:  Solving for Uz, Initial residual = 0.389677, Final residual = 0.0387569, No Iterations 4
diagonalPCG:  Solving for p, Initial residual = 0.330218, Final residual = 0.032598, No Iterations 347
time step continuity errors : sum local = 0.000650105, global = 4.0213e-05, cumulative = -2.30815e-05
ExecutionTime = 26.8518 s  ClockTime = 26 s

Time = 13s

diagonalPBiCGStab:  Solving for Ux, Initial residual = 0.598335, Final residual = 0.0436576, No Iterations 3
diagonalPBiCGStab:  Solving for Uy, Initial residual = 0.187082, Final residual = 0.0081568, No Iterations 6
diagonalPBiCGStab:  Solving for Uz, Initial residual = 0.223343, Final residual = 0.0125772, No Iterations 6
diagonalPCG:  Solving for p, Initial residual = 0.332372, Final residual = 0.0331578, No Iterations 618
time step continuity errors : sum local = 0.000584222, global = -6.0692e-06, cumulative = -2.91507e-05
ExecutionTime = 29.1716 s  ClockTime = 29 s

Time = 14s

diagonalPBiCGStab:  Solving for Ux, Initial residual = 0.294913, Final residual = 0.0123337, No Iterations 5
diagonalPBiCGStab:  Solving for Uy, Initial residual = 0.245895, Final residual = 0.0207069, No Iterations 5
diagonalPBiCGStab:  Solving for Uz, Initial residual = 0.286933, Final residual = 0.0231596, No Iterations 5
diagonalPCG:  Solving for p, Initial residual = 0.508145, Final residual = 0.0500476, No Iterations 666
time step continuity errors : sum local = 0.000410818, global = 4.70985e-06, cumulative = -2.44408e-05
ExecutionTime = 31.6128 s  ClockTime = 31 s

Time = 15s

diagonalPBiCGStab:  Solving for Ux, Initial residual = 0.223198, Final residual = 0.0154675, No Iterations 4
diagonalPBiCGStab:  Solving for Uy, Initial residual = 0.237107, Final residual = 0.0199669, No Iterations 5
diagonalPBiCGStab:  Solving for Uz, Initial residual = 0.308703, Final residual = 0.0228632, No Iterations 5
diagonalPCG:  Solving for p, Initial residual = 0.35238, Final residual = 0.0348661, No Iterations 308
time step continuity errors : sum local = 0.000428047, global = -5.35862e-06, cumulative = -2.97995e-05
ExecutionTime = 32.9331 s  ClockTime = 33 s

Time = 16s

diagonalPBiCGStab:  Solving for Ux, Initial residual = 0.190511, Final residual = 0.016364, No Iterations 3
diagonalPBiCGStab:  Solving for Uy, Initial residual = 0.145113, Final residual = 0.00711101, No Iterations 6
diagonalPBiCGStab:  Solving for Uz, Initial residual = 0.208852, Final residual = 0.016773, No Iterations 5
diagonalPCG:  Solving for p, Initial residual = 0.350536, Final residual = 0.0348914, No Iterations 741
time step continuity errors : sum local = 0.000403746, global = -1.60122e-06, cumulative = -3.14007e-05
ExecutionTime = 35.5514 s  ClockTime = 35 s

Time = 17s

diagonalPBiCGStab:  Solving for Ux, Initial residual = 0.172514, Final residual = 0.0130315, No Iterations 4
diagonalPBiCGStab:  Solving for Uy, Initial residual = 0.191139, Final residual = 0.0190922, No Iterations 4
diagonalPBiCGStab:  Solving for Uz, Initial residual = 0.243993, Final residual = 0.00562749, No Iterations 7
diagonalPCG:  Solving for p, Initial residual = 0.691136, Final residual = 0.0679731, No Iterations 636
time step continuity errors : sum local = 0.000339112, global = 5.78484e-06, cumulative = -2.56158e-05
ExecutionTime = 37.8912 s  ClockTime = 38 s

Time = 18s

diagonalPBiCGStab:  Solving for Ux, Initial residual = 0.353202, Final residual = 0.0285792, No Iterations 3
diagonalPBiCGStab:  Solving for Uy, Initial residual = 0.192425, Final residual = 0.0192169, No Iterations 5
diagonalPBiCGStab:  Solving for Uz, Initial residual = 0.238319, Final residual = 0.0203182, No Iterations 5
diagonalPCG:  Solving for p, Initial residual = 0.362245, Final residual = 0.0361049, No Iterations 319
time step continuity errors : sum local = 0.000377557, global = -1.06523e-05, cumulative = -3.62681e-05
ExecutionTime = 39.2151 s  ClockTime = 39 s

Time = 19s

diagonalPBiCGStab:  Solving for Ux, Initial residual = 0.376859, Final residual = 0.0299339, No Iterations 3
diagonalPBiCGStab:  Solving for Uy, Initial residual = 0.143691, Final residual = 0.0102931, No Iterations 5
diagonalPBiCGStab:  Solving for Uz, Initial residual = 0.19029, Final residual = 0.0176159, No Iterations 5
diagonalPCG:  Solving for p, Initial residual = 0.351554, Final residual = 0.0349341, No Iterations 755
time step continuity errors : sum local = 0.000335994, global = -3.03386e-07, cumulative = -3.65715e-05
ExecutionTime = 41.9122 s  ClockTime = 42 s

Time = 20s

diagonalPBiCGStab:  Solving for Ux, Initial residual = 0.172058, Final residual = 0.0170388, No Iterations 4
diagonalPBiCGStab:  Solving for Uy, Initial residual = 0.186656, Final residual = 0.0145434, No Iterations 5
diagonalPBiCGStab:  Solving for Uz, Initial residual = 0.242916, Final residual = 0.0180539, No Iterations 5
diagonalPCG:  Solving for p, Initial residual = 0.583109, Final residual = 0.0582073, No Iterations 675
time step continuity errors : sum local = 0.000278475, global = 1.51295e-06, cumulative = -3.50586e-05
ExecutionTime = 44.4214 s  ClockTime = 44 s

Time = 21s

diagonalPBiCGStab:  Solving for Ux, Initial residual = 0.17743, Final residual = 0.01114, No Iterations 4
diagonalPBiCGStab:  Solving for Uy, Initial residual = 0.136451, Final residual = 0.0108077, No Iterations 5
diagonalPBiCGStab:  Solving for Uz, Initial residual = 0.193307, Final residual = 0.0145849, No Iterations 5
diagonalPCG:  Solving for p, Initial residual = 0.376395, Final residual = 0.037507, No Iterations 300
time step continuity errors : sum local = 0.000293254, global = 2.15533e-05, cumulative = -1.35053e-05
ExecutionTime = 45.7109 s  ClockTime = 45 s

Time = 22s

diagonalPBiCGStab:  Solving for Ux, Initial residual = 0.141712, Final residual = 0.00891005, No Iterations 4
diagonalPBiCGStab:  Solving for Uy, Initial residual = 0.107123, Final residual = 0.00823221, No Iterations 5
diagonalPBiCGStab:  Solving for Uz, Initial residual = 0.161409, Final residual = 0.0119149, No Iterations 5
diagonalPCG:  Solving for p, Initial residual = 0.382662, Final residual = 0.0379875, No Iterations 751
time step continuity errors : sum local = 0.000258554, global = -1.78898e-07, cumulative = -1.36842e-05
ExecutionTime = 48.4898 s  ClockTime = 48 s

Time = 23s

diagonalPBiCGStab:  Solving for Ux, Initial residual = 0.217238, Final residual = 0.0150465, No Iterations 4
diagonalPBiCGStab:  Solving for Uy, Initial residual = 0.156158, Final residual = 0.0111389, No Iterations 5
diagonalPBiCGStab:  Solving for Uz, Initial residual = 0.223895, Final residual = 0.0195068, No Iterations 5
diagonalPCG:  Solving for p, Initial residual = 0.345975, Final residual = 0.0342092, No Iterations 257
time step continuity errors : sum local = 0.000256998, global = 2.18466e-05, cumulative = 8.16235e-06
ExecutionTime = 49.6432 s  ClockTime = 49 s

Time = 24s

diagonalPBiCGStab:  Solving for Ux, Initial residual = 0.282115, Final residual = 0.0250033, No Iterations 3
diagonalPBiCGStab:  Solving for Uy, Initial residual = 0.108368, Final residual = 0.00952413, No Iterations 5
diagonalPBiCGStab:  Solving for Uz, Initial residual = 0.150433, Final residual = 0.00722567, No Iterations 6
diagonalPCG:  Solving for p, Initial residual = 0.353908, Final residual = 0.0351282, No Iterations 288
time step continuity errors : sum local = 0.00025308, global = -9.22931e-06, cumulative = -1.06696e-06
ExecutionTime = 50.9052 s  ClockTime = 51 s

Time = 25s

diagonalPBiCGStab:  Solving for Ux, Initial residual = 0.246701, Final residual = 0.0171514, No Iterations 4
diagonalPBiCGStab:  Solving for Uy, Initial residual = 0.108563, Final residual = 0.00877313, No Iterations 5
diagonalPBiCGStab:  Solving for Uz, Initial residual = 0.15261, Final residual = 0.0138574, No Iterations 5
diagonalPCG:  Solving for p, Initial residual = 0.333933, Final residual = 0.0330195, No Iterations 719
time step continuity errors : sum local = 0.000224123, global = -3.33738e-07, cumulative = -1.4007e-06
ExecutionTime = 53.52 s  ClockTime = 53 s

Time = 26s

diagonalPBiCGStab:  Solving for Ux, Initial residual = 0.135111, Final residual = 0.0108845, No Iterations 4
diagonalPBiCGStab:  Solving for Uy, Initial residual = 0.128274, Final residual = 0.0126091, No Iterations 4
diagonalPBiCGStab:  Solving for Uz, Initial residual = 0.175468, Final residual = 0.0123429, No Iterations 5
diagonalPCG:  Solving for p, Initial residual = 0.556261, Final residual = 0.0554702, No Iterations 713
time step continuity errors : sum local = 0.000208961, global = -2.64277e-06, cumulative = -4.04347e-06
ExecutionTime = 56.0798 s  ClockTime = 56 s

Time = 27s

diagonalPBiCGStab:  Solving for Ux, Initial residual = 0.145434, Final residual = 0.0116659, No Iterations 3
diagonalPBiCGStab:  Solving for Uy, Initial residual = 0.0885952, Final residual = 0.00667363, No Iterations 5
diagonalPBiCGStab:  Solving for Uz, Initial residual = 0.14001, Final residual = 0.0113071, No Iterations 5
diagonalPCG:  Solving for p, Initial residual = 0.367273, Final residual = 0.0363633, No Iterations 304
time step continuity errors : sum local = 0.000211323, global = 1.97349e-05, cumulative = 1.56914e-05
ExecutionTime = 57.3796 s  ClockTime = 57 s

Time = 28s

diagonalPBiCGStab:  Solving for Ux, Initial residual = 0.127092, Final residual = 0.010551, No Iterations 3
diagonalPBiCGStab:  Solving for Uy, Initial residual = 0.0794033, Final residual = 0.00625881, No Iterations 5
diagonalPBiCGStab:  Solving for Uz, Initial residual = 0.122813, Final residual = 0.0089754, No Iterations 5
diagonalPCG:  Solving for p, Initial residual = 0.377636, Final residual = 0.0371985, No Iterations 622
time step continuity errors : sum local = 0.00019056, global = -1.73523e-06, cumulative = 1.39562e-05
ExecutionTime = 59.6289 s  ClockTime = 59 s

Time = 29s

diagonalPBiCGStab:  Solving for Ux, Initial residual = 0.218083, Final residual = 0.0162568, No Iterations 3
diagonalPBiCGStab:  Solving for Uy, Initial residual = 0.103099, Final residual = 0.00735649, No Iterations 5
diagonalPBiCGStab:  Solving for Uz, Initial residual = 0.165946, Final residual = 0.0141904, No Iterations 5
diagonalPCG:  Solving for p, Initial residual = 0.310589, Final residual = 0.0310286, No Iterations 339
time step continuity errors : sum local = 0.000195156, global = 2.25385e-05, cumulative = 3.64947e-05
ExecutionTime = 61.0418 s  ClockTime = 61 s

Time = 30s

diagonalPBiCGStab:  Solving for Ux, Initial residual = 0.210803, Final residual = 0.0203571, No Iterations 3
diagonalPBiCGStab:  Solving for Uy, Initial residual = 0.0741702, Final residual = 0.00680033, No Iterations 5
diagonalPBiCGStab:  Solving for Uz, Initial residual = 0.115735, Final residual = 0.00473947, No Iterations 6
diagonalPCG:  Solving for p, Initial residual = 0.306067, Final residual = 0.0303803, No Iterations 318
time step continuity errors : sum local = 0.000177711, global = -1.28019e-05, cumulative = 2.36928e-05
ExecutionTime = 62.3596 s  ClockTime = 62 s

Time = 31s

diagonalPBiCGStab:  Solving for Ux, Initial residual = 0.200016, Final residual = 0.014767, No Iterations 3
diagonalPBiCGStab:  Solving for Uy, Initial residual = 0.0794713, Final residual = 0.00768433, No Iterations 4
diagonalPBiCGStab:  Solving for Uz, Initial residual = 0.11006, Final residual = 0.0096013, No Iterations 5
diagonalPCG:  Solving for p, Initial residual = 0.304914, Final residual = 0.0303551, No Iterations 629
time step continuity errors : sum local = 0.000170948, global = -6.09256e-06, cumulative = 1.76002e-05
ExecutionTime = 64.6616 s  ClockTime = 64 s

Time = 32s

diagonalPBiCGStab:  Solving for Ux, Initial residual = 0.0859753, Final residual = 0.00659336, No Iterations 4
diagonalPBiCGStab:  Solving for Uy, Initial residual = 0.0813075, Final residual = 0.00210098, No Iterations 7
diagonalPBiCGStab:  Solving for Uz, Initial residual = 0.131429, Final residual = 0.00531113, No Iterations 6
diagonalPCG:  Solving for p, Initial residual = 0.446222, Final residual = 0.0440592, No Iterations 339
time step continuity errors : sum local = 0.000148198, global = -1.73093e-05, cumulative = 2.90953e-07
ExecutionTime = 66.0726 s  ClockTime = 66 s

Time = 33s

diagonalPBiCGStab:  Solving for Ux, Initial residual = 0.0822491, Final residual = 0.00701444, No Iterations 4
diagonalPBiCGStab:  Solving for Uy, Initial residual = 0.0591611, Final residual = 0.00317855, No Iterations 6
diagonalPBiCGStab:  Solving for Uz, Initial residual = 0.09499, Final residual = 0.00882855, No Iterations 5
diagonalPCG:  Solving for p, Initial residual = 0.441515, Final residual = 0.0435485, No Iterations 315
time step continuity errors : sum local = 0.00014051, global = 9.39779e-06, cumulative = 9.68875e-06
ExecutionTime = 67.4015 s  ClockTime = 67 s

Time = 34s

diagonalPBiCGStab:  Solving for Ux, Initial residual = 0.0822651, Final residual = 0.00744899, No Iterations 3
diagonalPBiCGStab:  Solving for Uy, Initial residual = 0.0524027, Final residual = 0.00522667, No Iterations 5
diagonalPBiCGStab:  Solving for Uz, Initial residual = 0.078303, Final residual = 0.00721352, No Iterations 5
diagonalPCG:  Solving for p, Initial residual = 0.43874, Final residual = 0.0436485, No Iterations 744
time step continuity errors : sum local = 0.000128415, global = 2.02762e-06, cumulative = 1.17164e-05
ExecutionTime = 70.0468 s  ClockTime = 70 s

Time = 35s

diagonalPBiCGStab:  Solving for Ux, Initial residual = 0.115118, Final residual = 0.00911724, No Iterations 3
diagonalPBiCGStab:  Solving for Uy, Initial residual = 0.0583911, Final residual = 0.00565901, No Iterations 6
diagonalPBiCGStab:  Solving for Uz, Initial residual = 0.0946843, Final residual = 0.00463377, No Iterations 6
diagonalPCG:  Solving for p, Initial residual = 0.285671, Final residual = 0.0283481, No Iterations 338
time step continuity errors : sum local = 0.000118013, global = 1.40293e-05, cumulative = 2.57457e-05
ExecutionTime = 71.4571 s  ClockTime = 71 s

Time = 36s

diagonalPBiCGStab:  Solving for Ux, Initial residual = 0.10744, Final residual = 0.00799497, No Iterations 3
diagonalPBiCGStab:  Solving for Uy, Initial residual = 0.0495739, Final residual = 0.00134047, No Iterations 7
diagonalPBiCGStab:  Solving for Uz, Initial residual = 0.0719277, Final residual = 0.00651409, No Iterations 5
diagonalPCG:  Solving for p, Initial residual = 0.287166, Final residual = 0.028704, No Iterations 307
time step continuity errors : sum local = 0.000116625, global = -3.09256e-06, cumulative = 2.26531e-05
ExecutionTime = 72.7816 s  ClockTime = 72 s

Time = 37s

diagonalPBiCGStab:  Solving for Ux, Initial residual = 0.0988001, Final residual = 0.00733742, No Iterations 3
diagonalPBiCGStab:  Solving for Uy, Initial residual = 0.0512599, Final residual = 0.00505434, No Iterations 4
diagonalPBiCGStab:  Solving for Uz, Initial residual = 0.0645366, Final residual = 0.00359848, No Iterations 6
diagonalPCG:  Solving for p, Initial residual = 0.270187, Final residual = 0.026857, No Iterations 270
time step continuity errors : sum local = 0.000111015, global = -1.17211e-05, cumulative = 1.0932e-05
ExecutionTime = 73.9656 s  ClockTime = 74 s

Time = 38s

diagonalPBiCGStab:  Solving for Ux, Initial residual = 0.0915564, Final residual = 0.00661072, No Iterations 3
diagonalPBiCGStab:  Solving for Uy, Initial residual = 0.049414, Final residual = 0.00469563, No Iterations 4
diagonalPBiCGStab:  Solving for Uz, Initial residual = 0.0636671, Final residual = 0.00621367, No Iterations 5
diagonalPCG:  Solving for p, Initial residual = 0.245371, Final residual = 0.0243324, No Iterations 614
time step continuity errors : sum local = 0.000101941, global = -2.02682e-06, cumulative = 8.9052e-06
ExecutionTime = 76.3075 s  ClockTime = 76 s

Time = 39s

diagonalPBiCGStab:  Solving for Ux, Initial residual = 0.0454502, Final residual = 0.00354444, No Iterations 4
diagonalPBiCGStab:  Solving for Uy, Initial residual = 0.0431885, Final residual = 0.00269824, No Iterations 6
diagonalPBiCGStab:  Solving for Uz, Initial residual = 0.0756247, Final residual = 0.00668577, No Iterations 5
diagonalPCG:  Solving for p, Initial residual = 0.450915, Final residual = 0.0447577, No Iterations 238
time step continuity errors : sum local = 0.000101583, global = 8.36762e-07, cumulative = 9.74197e-06
ExecutionTime = 77.4174 s  ClockTime = 77 s

Time = 40s

diagonalPBiCGStab:  Solving for Ux, Initial residual = 0.0430187, Final residual = 0.00415267, No Iterations 4
diagonalPBiCGStab:  Solving for Uy, Initial residual = 0.0364949, Final residual = 0.00317254, No Iterations 5
diagonalPBiCGStab:  Solving for Uz, Initial residual = 0.0541222, Final residual = 0.00391487, No Iterations 5
diagonalPCG:  Solving for p, Initial residual = 0.425797, Final residual = 0.042311, No Iterations 581
time step continuity errors : sum local = 9.71701e-05, global = 3.15406e-06, cumulative = 1.2896e-05
ExecutionTime = 79.6417 s  ClockTime = 79 s

Time = 41s

diagonalPBiCGStab:  Solving for Ux, Initial residual = 0.0498486, Final residual = 0.00405208, No Iterations 4
diagonalPBiCGStab:  Solving for Uy, Initial residual = 0.0362207, Final residual = 0.00310213, No Iterations 5
diagonalPBiCGStab:  Solving for Uz, Initial residual = 0.0531802, Final residual = 0.00403431, No Iterations 5
diagonalPCG:  Solving for p, Initial residual = 0.319423, Final residual = 0.0317961, No Iterations 635
time step continuity errors : sum local = 8.44451e-05, global = 2.75971e-06, cumulative = 1.56557e-05
ExecutionTime = 81.962 s  ClockTime = 82 s

Time = 42s

diagonalPBiCGStab:  Solving for Ux, Initial residual = 0.0713827, Final residual = 0.0066934, No Iterations 3
diagonalPBiCGStab:  Solving for Uy, Initial residual = 0.0355337, Final residual = 0.00285418, No Iterations 5
diagonalPBiCGStab:  Solving for Uz, Initial residual = 0.0525779, Final residual = 0.00461171, No Iterations 5
diagonalPCG:  Solving for p, Initial residual = 0.23239, Final residual = 0.0230053, No Iterations 228
time step continuity errors : sum local = 8.80551e-05, global = -4.48838e-06, cumulative = 1.11674e-05
ExecutionTime = 83.0357 s  ClockTime = 83 s

Time = 43s

diagonalPBiCGStab:  Solving for Ux, Initial residual = 0.0595638, Final residual = 0.00569939, No Iterations 3
diagonalPBiCGStab:  Solving for Uy, Initial residual = 0.0364171, Final residual = 0.00333942, No Iterations 4
diagonalPBiCGStab:  Solving for Uz, Initial residual = 0.0474513, Final residual = 0.00244074, No Iterations 6
diagonalPCG:  Solving for p, Initial residual = 0.213491, Final residual = 0.0212693, No Iterations 582
time step continuity errors : sum local = 8.42087e-05, global = 3.32981e-07, cumulative = 1.15003e-05
ExecutionTime = 85.2378 s  ClockTime = 85 s

Time = 44s

diagonalPBiCGStab:  Solving for Ux, Initial residual = 0.0314649, Final residual = 0.00173798, No Iterations 5
diagonalPBiCGStab:  Solving for Uy, Initial residual = 0.0385246, Final residual = 0.0031214, No Iterations 5
diagonalPBiCGStab:  Solving for Uz, Initial residual = 0.0529569, Final residual = 0.00244608, No Iterations 6
diagonalPCG:  Solving for p, Initial residual = 0.340156, Final residual = 0.0336916, No Iterations 352
time step continuity errors : sum local = 7.96996e-05, global = -9.34125e-06, cumulative = 2.1591e-06
ExecutionTime = 86.7355 s  ClockTime = 86 s

Time = 45s

diagonalPBiCGStab:  Solving for Ux, Initial residual = 0.0278704, Final residual = 0.00261972, No Iterations 4
diagonalPBiCGStab:  Solving for Uy, Initial residual = 0.0297937, Final residual = 0.00279719, No Iterations 4
diagonalPBiCGStab:  Solving for Uz, Initial residual = 0.0425684, Final residual = 0.00412086, No Iterations 4
diagonalPCG:  Solving for p, Initial residual = 0.344251, Final residual = 0.034329, No Iterations 229
time step continuity errors : sum local = 7.62901e-05, global = -3.67392e-06, cumulative = -1.51483e-06
ExecutionTime = 87.7864 s  ClockTime = 87 s

Time = 46s

diagonalPBiCGStab:  Solving for Ux, Initial residual = 0.0253202, Final residual = 0.00249951, No Iterations 4
diagonalPBiCGStab:  Solving for Uy, Initial residual = 0.0288797, Final residual = 0.0024205, No Iterations 5
diagonalPBiCGStab:  Solving for Uz, Initial residual = 0.0380832, Final residual = 0.00370858, No Iterations 4
diagonalPCG:  Solving for p, Initial residual = 0.350162, Final residual = 0.0348341, No Iterations 204
time step continuity errors : sum local = 7.30449e-05, global = -6.44986e-06, cumulative = -7.96469e-06
ExecutionTime = 88.7897 s  ClockTime = 88 s

Time = 47s

diagonalPBiCGStab:  Solving for Ux, Initial residual = 0.0227269, Final residual = 0.00175298, No Iterations 4
diagonalPBiCGStab:  Solving for Uy, Initial residual = 0.0283612, Final residual = 0.0021635, No Iterations 5
diagonalPBiCGStab:  Solving for Uz, Initial residual = 0.0366792, Final residual = 0.00313799, No Iterations 5
diagonalPCG:  Solving for p, Initial residual = 0.34286, Final residual = 0.0342666, No Iterations 179
time step continuity errors : sum local = 6.95749e-05, global = -2.53297e-06, cumulative = -1.04977e-05
ExecutionTime = 89.6986 s  ClockTime = 89 s

Time = 48s

diagonalPBiCGStab:  Solving for Ux, Initial residual = 0.0212231, Final residual = 0.00162986, No Iterations 4
diagonalPBiCGStab:  Solving for Uy, Initial residual = 0.0271868, Final residual = 0.00226354, No Iterations 5
diagonalPBiCGStab:  Solving for Uz, Initial residual = 0.0358995, Final residual = 0.00296912, No Iterations 5
diagonalPCG:  Solving for p, Initial residual = 0.335539, Final residual = 0.0334801, No Iterations 224
time step continuity errors : sum local = 6.71219e-05, global = -9.99272e-07, cumulative = -1.14969e-05
ExecutionTime = 90.7654 s  ClockTime = 90 s

Time = 49s

diagonalPBiCGStab:  Solving for Ux, Initial residual = 0.0172322, Final residual = 0.00148576, No Iterations 4
diagonalPBiCGStab:  Solving for Uy, Initial residual = 0.0275432, Final residual = 0.00263438, No Iterations 5
diagonalPBiCGStab:  Solving for Uz, Initial residual = 0.0356471, Final residual = 0.00115401, No Iterations 7
diagonalPCG:  Solving for p, Initial residual = 0.323643, Final residual = 0.0319112, No Iterations 191
time step continuity errors : sum local = 6.3595e-05, global = 2.1316e-06, cumulative = -9.36533e-06
ExecutionTime = 91.7439 s  ClockTime = 91 s

Time = 50s

diagonalPBiCGStab:  Solving for Ux, Initial residual = 0.0179229, Final residual = 0.00148551, No Iterations 4
diagonalPBiCGStab:  Solving for Uy, Initial residual = 0.02818, Final residual = 0.00271467, No Iterations 4
diagonalPBiCGStab:  Solving for Uz, Initial residual = 0.0333273, Final residual = 0.00316705, No Iterations 5
diagonalPCG:  Solving for p, Initial residual = 0.317912, Final residual = 0.031775, No Iterations 129
time step continuity errors : sum local = 6.29289e-05, global = -2.66428e-07, cumulative = -9.63175e-06
ExecutionTime = 92.498 s  ClockTime = 92 s

Time = 51s

diagonalPBiCGStab:  Solving for Ux, Initial residual = 0.0185074, Final residual = 0.00147201, No Iterations 4
diagonalPBiCGStab:  Solving for Uy, Initial residual = 0.0267621, Final residual = 0.00213714, No Iterations 5
diagonalPBiCGStab:  Solving for Uz, Initial residual = 0.0310619, Final residual = 0.00229638, No Iterations 5
diagonalPCG:  Solving for p, Initial residual = 0.310679, Final residual = 0.0309151, No Iterations 222
time step continuity errors : sum local = 6.12655e-05, global = 6.66224e-07, cumulative = -8.96553e-06
ExecutionTime = 93.5328 s  ClockTime = 93 s

Time = 52s

diagonalPBiCGStab:  Solving for Ux, Initial residual = 0.0163713, Final residual = 0.00140879, No Iterations 4
diagonalPBiCGStab:  Solving for Uy, Initial residual = 0.0254537, Final residual = 0.00224059, No Iterations 5
diagonalPBiCGStab:  Solving for Uz, Initial residual = 0.0310685, Final residual = 0.00302583, No Iterations 4
diagonalPCG:  Solving for p, Initial residual = 0.30223, Final residual = 0.029812, No Iterations 194
time step continuity errors : sum local = 5.89641e-05, global = -1.40965e-06, cumulative = -1.03752e-05
ExecutionTime = 94.4848 s  ClockTime = 94 s

Time = 53s

diagonalPBiCGStab:  Solving for Ux, Initial residual = 0.0155512, Final residual = 0.00125474, No Iterations 5
diagonalPBiCGStab:  Solving for Uy, Initial residual = 0.0255172, Final residual = 0.00214863, No Iterations 5
diagonalPBiCGStab:  Solving for Uz, Initial residual = 0.0307475, Final residual = 0.00297951, No Iterations 4
diagonalPCG:  Solving for p, Initial residual = 0.29776, Final residual = 0.0297484, No Iterations 92
time step continuity errors : sum local = 5.87927e-05, global = -9.72745e-07, cumulative = -1.13479e-05
ExecutionTime = 95.1196 s  ClockTime = 95 s

Time = 54s

diagonalPBiCGStab:  Solving for Ux, Initial residual = 0.0156626, Final residual = 0.00130639, No Iterations 4
diagonalPBiCGStab:  Solving for Uy, Initial residual = 0.0259311, Final residual = 0.0020152, No Iterations 5
diagonalPBiCGStab:  Solving for Uz, Initial residual = 0.0298386, Final residual = 0.00267069, No Iterations 4
diagonalPCG:  Solving for p, Initial residual = 0.295403, Final residual = 0.0294619, No Iterations 137
time step continuity errors : sum local = 5.81099e-05, global = -2.47482e-06, cumulative = -1.38227e-05
ExecutionTime = 95.8976 s  ClockTime = 96 s

Time = 55s

diagonalPBiCGStab:  Solving for Ux, Initial residual = 0.0148291, Final residual = 0.00123511, No Iterations 4
diagonalPBiCGStab:  Solving for Uy, Initial residual = 0.0251649, Final residual = 0.00237442, No Iterations 4
diagonalPBiCGStab:  Solving for Uz, Initial residual = 0.0294957, Final residual = 0.00279079, No Iterations 4
diagonalPCG:  Solving for p, Initial residual = 0.291758, Final residual = 0.0285349, No Iterations 204
time step continuity errors : sum local = 5.56791e-05, global = -1.53539e-06, cumulative = -1.53581e-05
ExecutionTime = 96.8722 s  ClockTime = 97 s

Time = 56s

diagonalPBiCGStab:  Solving for Ux, Initial residual = 0.0145956, Final residual = 0.00132164, No Iterations 4
diagonalPBiCGStab:  Solving for Uy, Initial residual = 0.0259108, Final residual = 0.00221939, No Iterations 5
diagonalPBiCGStab:  Solving for Uz, Initial residual = 0.0290643, Final residual = 0.00278915, No Iterations 5
diagonalPCG:  Solving for p, Initial residual = 0.297387, Final residual = 0.0293487, No Iterations 98
time step continuity errors : sum local = 5.60409e-05, global = -4.27262e-06, cumulative = -1.96307e-05
ExecutionTime = 97.5192 s  ClockTime = 97 s

Time = 57s

diagonalPBiCGStab:  Solving for Ux, Initial residual = 0.0146537, Final residual = 0.00123039, No Iterations 4
diagonalPBiCGStab:  Solving for Uy, Initial residual = 0.0250299, Final residual = 0.002027, No Iterations 5
diagonalPBiCGStab:  Solving for Uz, Initial residual = 0.0268856, Final residual = 0.0021127, No Iterations 5
diagonalPCG:  Solving for p, Initial residual = 0.293407, Final residual = 0.028968, No Iterations 101
time step continuity errors : sum local = 5.53827e-05, global = -3.4175e-06, cumulative = -2.30482e-05
ExecutionTime = 98.1843 s  ClockTime = 98 s

Time = 58s

diagonalPBiCGStab:  Solving for Ux, Initial residual = 0.0128985, Final residual = 0.00111869, No Iterations 4
diagonalPBiCGStab:  Solving for Uy, Initial residual = 0.0252093, Final residual = 0.00199166, No Iterations 5
diagonalPBiCGStab:  Solving for Uz, Initial residual = 0.0266096, Final residual = 0.0023541, No Iterations 5
diagonalPCG:  Solving for p, Initial residual = 0.28743, Final residual = 0.028717, No Iterations 172
time step continuity errors : sum local = 5.45944e-05, global = -3.48907e-06, cumulative = -2.65373e-05
ExecutionTime = 99.0727 s  ClockTime = 99 s

Time = 59s

diagonalPBiCGStab:  Solving for Ux, Initial residual = 0.0125133, Final residual = 0.00113016, No Iterations 4
diagonalPBiCGStab:  Solving for Uy, Initial residual = 0.0267124, Final residual = 0.00239609, No Iterations 4
diagonalPBiCGStab:  Solving for Uz, Initial residual = 0.027242, Final residual = 0.00220633, No Iterations 5
diagonalPCG:  Solving for p, Initial residual = 0.294687, Final residual = 0.0293319, No Iterations 121
time step continuity errors : sum local = 5.45502e-05, global = -3.57845e-06, cumulative = -3.01158e-05
ExecutionTime = 99.7844 s  ClockTime = 99 s

Time = 60s

diagonalPBiCGStab:  Solving for Ux, Initial residual = 0.0121172, Final residual = 0.000907797, No Iterations 5
diagonalPBiCGStab:  Solving for Uy, Initial residual = 0.024273, Final residual = 0.00217565, No Iterations 4
diagonalPBiCGStab:  Solving for Uz, Initial residual = 0.0263901, Final residual = 0.00199961, No Iterations 5
diagonalPCG:  Solving for p, Initial residual = 0.291372, Final residual = 0.0290738, No Iterations 576
time step continuity errors : sum local = 5.3552e-05, global = -7.72813e-07, cumulative = -3.08886e-05
ExecutionTime = 101.909 s  ClockTime = 102 s

Time = 61s

diagonalPBiCGStab:  Solving for Ux, Initial residual = 0.0212738, Final residual = 0.00207443, No Iterations 3
diagonalPBiCGStab:  Solving for Uy, Initial residual = 0.0239736, Final residual = 0.00202192, No Iterations 5
diagonalPBiCGStab:  Solving for Uz, Initial residual = 0.0280661, Final residual = 0.0027747, No Iterations 5
diagonalPCG:  Solving for p, Initial residual = 0.269447, Final residual = 0.0269374, No Iterations 59
time step continuity errors : sum local = 5.64167e-05, global = 2.40541e-06, cumulative = -2.84832e-05
ExecutionTime = 102.43 s  ClockTime = 102 s

Time = 62s

diagonalPBiCGStab:  Solving for Ux, Initial residual = 0.0207829, Final residual = 0.00156396, No Iterations 4
diagonalPBiCGStab:  Solving for Uy, Initial residual = 0.0239862, Final residual = 0.00186342, No Iterations 5
diagonalPBiCGStab:  Solving for Uz, Initial residual = 0.0257863, Final residual = 0.00217961, No Iterations 4
diagonalPCG:  Solving for p, Initial residual = 0.263859, Final residual = 0.0263805, No Iterations 232
time step continuity errors : sum local = 5.5038e-05, global = 4.95749e-06, cumulative = -2.35257e-05
ExecutionTime = 103.49 s  ClockTime = 103 s

Time = 63s

diagonalPBiCGStab:  Solving for Ux, Initial residual = 0.0207982, Final residual = 0.00164145, No Iterations 4
diagonalPBiCGStab:  Solving for Uy, Initial residual = 0.0251761, Final residual = 0.00248986, No Iterations 5
diagonalPBiCGStab:  Solving for Uz, Initial residual = 0.0272508, Final residual = 0.00229843, No Iterations 5
diagonalPCG:  Solving for p, Initial residual = 0.27283, Final residual = 0.0270382, No Iterations 562
time step continuity errors : sum local = 5.34236e-05, global = -1.18702e-07, cumulative = -2.36444e-05
ExecutionTime = 105.66 s  ClockTime = 105 s

Time = 64s

diagonalPBiCGStab:  Solving for Ux, Initial residual = 0.0190181, Final residual = 0.00176422, No Iterations 4
diagonalPBiCGStab:  Solving for Uy, Initial residual = 0.0294563, Final residual = 0.00275358, No Iterations 4
diagonalPBiCGStab:  Solving for Uz, Initial residual = 0.0307199, Final residual = 0.00104163, No Iterations 7
diagonalPCG:  Solving for p, Initial residual = 0.236196, Final residual = 0.0235738, No Iterations 165
time step continuity errors : sum local = 5.92498e-05, global = 1.53012e-06, cumulative = -2.21143e-05
ExecutionTime = 106.535 s  ClockTime = 106 s

Time = 65s

diagonalPBiCGStab:  Solving for Ux, Initial residual = 0.016191, Final residual = 0.00148674, No Iterations 4
diagonalPBiCGStab:  Solving for Uy, Initial residual = 0.0287482, Final residual = 0.00244348, No Iterations 4
diagonalPBiCGStab:  Solving for Uz, Initial residual = 0.026197, Final residual = 0.00252645, No Iterations 4
diagonalPCG:  Solving for p, Initial residual = 0.229437, Final residual = 0.0229374, No Iterations 177
time step continuity errors : sum local = 5.67847e-05, global = -3.13394e-06, cumulative = -2.52482e-05
ExecutionTime = 107.424 s  ClockTime = 107 s

Time = 66s

diagonalPBiCGStab:  Solving for Ux, Initial residual = 0.0162469, Final residual = 0.00148284, No Iterations 4
diagonalPBiCGStab:  Solving for Uy, Initial residual = 0.0256317, Final residual = 0.00232199, No Iterations 4
diagonalPBiCGStab:  Solving for Uz, Initial residual = 0.0259794, Final residual = 0.00204233, No Iterations 5
diagonalPCG:  Solving for p, Initial residual = 0.228772, Final residual = 0.0225586, No Iterations 489
time step continuity errors : sum local = 5.48375e-05, global = 5.99766e-07, cumulative = -2.46484e-05
ExecutionTime = 109.335 s  ClockTime = 109 s

Time = 67s

diagonalPBiCGStab:  Solving for Ux, Initial residual = 0.0181212, Final residual = 0.00159487, No Iterations 4
diagonalPBiCGStab:  Solving for Uy, Initial residual = 0.0262555, Final residual = 0.00191778, No Iterations 6
diagonalPBiCGStab:  Solving for Uz, Initial residual = 0.0293112, Final residual = 0.00180973, No Iterations 6
diagonalPCG:  Solving for p, Initial residual = 0.279701, Final residual = 0.0276, No Iterations 168
time step continuity errors : sum local = 5.46262e-05, global = -3.20307e-06, cumulative = -2.78515e-05
ExecutionTime = 110.241 s  ClockTime = 110 s

Time = 68s

diagonalPBiCGStab:  Solving for Ux, Initial residual = 0.0169273, Final residual = 0.00154875, No Iterations 4
diagonalPBiCGStab:  Solving for Uy, Initial residual = 0.0230511, Final residual = 0.00178957, No Iterations 5
diagonalPBiCGStab:  Solving for Uz, Initial residual = 0.0253374, Final residual = 0.00219346, No Iterations 5
diagonalPCG:  Solving for p, Initial residual = 0.272688, Final residual = 0.0269154, No Iterations 165
time step continuity errors : sum local = 5.2929e-05, global = 2.07397e-06, cumulative = -2.57775e-05
ExecutionTime = 111.098 s  ClockTime = 111 s

Time = 69s

diagonalPBiCGStab:  Solving for Ux, Initial residual = 0.0173254, Final residual = 0.00131158, No Iterations 4
diagonalPBiCGStab:  Solving for Uy, Initial residual = 0.0240748, Final residual = 0.00232357, No Iterations 4
diagonalPBiCGStab:  Solving for Uz, Initial residual = 0.0247817, Final residual = 0.00238024, No Iterations 4
diagonalPCG:  Solving for p, Initial residual = 0.273954, Final residual = 0.027344, No Iterations 38
time step continuity errors : sum local = 5.22076e-05, global = 4.43896e-06, cumulative = -2.13386e-05
ExecutionTime = 111.555 s  ClockTime = 111 s

Time = 70s

diagonalPBiCGStab:  Solving for Ux, Initial residual = 0.0172407, Final residual = 0.000818516, No Iterations 5
diagonalPBiCGStab:  Solving for Uy, Initial residual = 0.0235611, Final residual = 0.00196718, No Iterations 4
diagonalPBiCGStab:  Solving for Uz, Initial residual = 0.0242378, Final residual = 0.00173583, No Iterations 5
diagonalPCG:  Solving for p, Initial residual = 0.26809, Final residual = 0.0265974, No Iterations 546
time step continuity errors : sum local = 5.06392e-05, global = 1.47371e-07, cumulative = -2.11912e-05
ExecutionTime = 113.619 s  ClockTime = 113 s

Time = 71s

diagonalPBiCGStab:  Solving for Ux, Initial residual = 0.0202008, Final residual = 0.00155141, No Iterations 4
diagonalPBiCGStab:  Solving for Uy, Initial residual = 0.0283836, Final residual = 0.00253607, No Iterations 4
diagonalPBiCGStab:  Solving for Uz, Initial residual = 0.0300234, Final residual = 0.00264327, No Iterations 5
diagonalPCG:  Solving for p, Initial residual = 0.216825, Final residual = 0.0216696, No Iterations 104
time step continuity errors : sum local = 5.95235e-05, global = -2.36609e-07, cumulative = -2.14278e-05
ExecutionTime = 114.283 s  ClockTime = 114 s

Time = 72s

diagonalPBiCGStab:  Solving for Ux, Initial residual = 0.0200993, Final residual = 0.00129132, No Iterations 4
diagonalPBiCGStab:  Solving for Uy, Initial residual = 0.0256223, Final residual = 0.00189461, No Iterations 5
diagonalPBiCGStab:  Solving for Uz, Initial residual = 0.0244086, Final residual = 0.00116383, No Iterations 6
diagonalPCG:  Solving for p, Initial residual = 0.21152, Final residual = 0.021113, No Iterations 215
time step continuity errors : sum local = 5.7965e-05, global = -5.36738e-06, cumulative = -2.67952e-05
ExecutionTime = 115.32 s  ClockTime = 115 s

Time = 73s

diagonalPBiCGStab:  Solving for Ux, Initial residual = 0.0188867, Final residual = 0.00131572, No Iterations 4
diagonalPBiCGStab:  Solving for Uy, Initial residual = 0.0260932, Final residual = 0.000895331, No Iterations 6
diagonalPBiCGStab:  Solving for Uz, Initial residual = 0.0243149, Final residual = 0.00214838, No Iterations 5
diagonalPCG:  Solving for p, Initial residual = 0.210165, Final residual = 0.0208018, No Iterations 556
time step continuity errors : sum local = 5.59269e-05, global = 2.02573e-06, cumulative = -2.47695e-05
ExecutionTime = 117.408 s  ClockTime = 117 s

Time = 74s

diagonalPBiCGStab:  Solving for Ux, Initial residual = 0.0173526, Final residual = 0.00148013, No Iterations 4
diagonalPBiCGStab:  Solving for Uy, Initial residual = 0.024251, Final residual = 0.0021741, No Iterations 5
diagonalPBiCGStab:  Solving for Uz, Initial residual = 0.0294438, Final residual = 0.00165726, No Iterations 6
diagonalPCG:  Solving for p, Initial residual = 0.282729, Final residual = 0.0279169, No Iterations 170
time step continuity errors : sum local = 5.67412e-05, global = -2.32188e-06, cumulative = -2.70914e-05
ExecutionTime = 118.299 s  ClockTime = 118 s

Time = 75s

diagonalPBiCGStab:  Solving for Ux, Initial residual = 0.0167372, Final residual = 0.00135905, No Iterations 4
diagonalPBiCGStab:  Solving for Uy, Initial residual = 0.0228907, Final residual = 0.00177174, No Iterations 5
diagonalPBiCGStab:  Solving for Uz, Initial residual = 0.0242222, Final residual = 0.0021457, No Iterations 5
diagonalPCG:  Solving for p, Initial residual = 0.28203, Final residual = 0.0279161, No Iterations 188
time step continuity errors : sum local = 5.58411e-05, global = 4.77605e-06, cumulative = -2.23153e-05
ExecutionTime = 119.249 s  ClockTime = 119 s

Time = 76s

diagonalPBiCGStab:  Solving for Ux, Initial residual = 0.0149903, Final residual = 0.00125434, No Iterations 4
diagonalPBiCGStab:  Solving for Uy, Initial residual = 0.0232582, Final residual = 0.00179715, No Iterations 4
diagonalPBiCGStab:  Solving for Uz, Initial residual = 0.024397, Final residual = 0.00208633, No Iterations 4
diagonalPCG:  Solving for p, Initial residual = 0.282238, Final residual = 0.0278613, No Iterations 541
time step continuity errors : sum local = 5.28596e-05, global = -1.34701e-06, cumulative = -2.36623e-05
ExecutionTime = 121.279 s  ClockTime = 121 s

Time = 77s

diagonalPBiCGStab:  Solving for Ux, Initial residual = 0.0203927, Final residual = 0.00191737, No Iterations 3
diagonalPBiCGStab:  Solving for Uy, Initial residual = 0.0268404, Final residual = 0.0021375, No Iterations 5
diagonalPBiCGStab:  Solving for Uz, Initial residual = 0.0290405, Final residual = 0.00214115, No Iterations 5
diagonalPCG:  Solving for p, Initial residual = 0.209771, Final residual = 0.0203597, No Iterations 162
time step continuity errors : sum local = 5.8094e-05, global = 3.96954e-06, cumulative = -1.96928e-05
ExecutionTime = 122.132 s  ClockTime = 122 s

Time = 78s

diagonalPBiCGStab:  Solving for Ux, Initial residual = 0.0195695, Final residual = 0.00133741, No Iterations 4
diagonalPBiCGStab:  Solving for Uy, Initial residual = 0.024793, Final residual = 0.00240805, No Iterations 4
diagonalPBiCGStab:  Solving for Uz, Initial residual = 0.0239478, Final residual = 0.00226225, No Iterations 4
diagonalPCG:  Solving for p, Initial residual = 0.206427, Final residual = 0.0200134, No Iterations 187
time step continuity errors : sum local = 5.59211e-05, global = -2.42744e-06, cumulative = -2.21202e-05
ExecutionTime = 123.063 s  ClockTime = 123 s

Time = 79s

diagonalPBiCGStab:  Solving for Ux, Initial residual = 0.0201238, Final residual = 0.00129972, No Iterations 4
diagonalPBiCGStab:  Solving for Uy, Initial residual = 0.0258984, Final residual = 0.00239966, No Iterations 4
diagonalPBiCGStab:  Solving for Uz, Initial residual = 0.0236842, Final residual = 0.00203282, No Iterations 4
diagonalPCG:  Solving for p, Initial residual = 0.205074, Final residual = 0.0204108, No Iterations 209
time step continuity errors : sum local = 5.68237e-05, global = -7.42972e-06, cumulative = -2.95499e-05
ExecutionTime = 124.043 s  ClockTime = 124 s

Time = 80s

diagonalPBiCGStab:  Solving for Ux, Initial residual = 0.0182422, Final residual = 0.00119814, No Iterations 4
diagonalPBiCGStab:  Solving for Uy, Initial residual = 0.0246563, Final residual = 0.00237283, No Iterations 4
diagonalPBiCGStab:  Solving for Uz, Initial residual = 0.0238866, Final residual = 0.00206335, No Iterations 4
diagonalPCG:  Solving for p, Initial residual = 0.205108, Final residual = 0.0201597, No Iterations 614
time step continuity errors : sum local = 5.58052e-05, global = -5.53142e-07, cumulative = -3.01031e-05
ExecutionTime = 126.283 s  ClockTime = 126 s

Time = 81s

diagonalPBiCGStab:  Solving for Ux, Initial residual = 0.0157497, Final residual = 0.00137011, No Iterations 4
diagonalPBiCGStab:  Solving for Uy, Initial residual = 0.0229228, Final residual = 0.00189109, No Iterations 5
diagonalPBiCGStab:  Solving for Uz, Initial residual = 0.0279027, Final residual = 0.00249052, No Iterations 5
diagonalPCG:  Solving for p, Initial residual = 0.289926, Final residual = 0.0289092, No Iterations 194
time step continuity errors : sum local = 6.04674e-05, global = -1.25719e-06, cumulative = -3.13603e-05
ExecutionTime = 127.248 s  ClockTime = 127 s

Time = 82s

diagonalPBiCGStab:  Solving for Ux, Initial residual = 0.0141879, Final residual = 0.00118745, No Iterations 4
diagonalPBiCGStab:  Solving for Uy, Initial residual = 0.0195953, Final residual = 0.00187536, No Iterations 4
diagonalPBiCGStab:  Solving for Uz, Initial residual = 0.0237758, Final residual = 0.00211543, No Iterations 4
diagonalPCG:  Solving for p, Initial residual = 0.283135, Final residual = 0.0281182, No Iterations 58
time step continuity errors : sum local = 5.84015e-05, global = 4.85228e-06, cumulative = -2.6508e-05
ExecutionTime = 127.763 s  ClockTime = 127 s

Time = 83s

diagonalPBiCGStab:  Solving for Ux, Initial residual = 0.0135316, Final residual = 0.00104235, No Iterations 4
diagonalPBiCGStab:  Solving for Uy, Initial residual = 0.0200402, Final residual = 0.00194035, No Iterations 4
diagonalPBiCGStab:  Solving for Uz, Initial residual = 0.0229204, Final residual = 0.00228527, No Iterations 4
diagonalPCG:  Solving for p, Initial residual = 0.271617, Final residual = 0.0270712, No Iterations 588
time step continuity errors : sum local = 5.53907e-05, global = -1.09574e-06, cumulative = -2.76037e-05
ExecutionTime = 129.916 s  ClockTime = 130 s

Time = 84s

diagonalPBiCGStab:  Solving for Ux, Initial residual = 0.0142611, Final residual = 0.00121531, No Iterations 4
diagonalPBiCGStab:  Solving for Uy, Initial residual = 0.0262541, Final residual = 0.00216541, No Iterations 4
diagonalPBiCGStab:  Solving for Uz, Initial residual = 0.0270127, Final residual = 0.00250923, No Iterations 4
diagonalPCG:  Solving for p, Initial residual = 0.217488, Final residual = 0.0216014, No Iterations 181
time step continuity errors : sum local = 5.63407e-05, global = 2.00521e-06, cumulative = -2.55985e-05
ExecutionTime = 130.828 s  ClockTime = 130 s

Time = 85s

diagonalPBiCGStab:  Solving for Ux, Initial residual = 0.0141144, Final residual = 0.0011019, No Iterations 4
diagonalPBiCGStab:  Solving for Uy, Initial residual = 0.026558, Final residual = 0.00223776, No Iterations 4
diagonalPBiCGStab:  Solving for Uz, Initial residual = 0.0231916, Final residual = 0.00187087, No Iterations 4
diagonalPCG:  Solving for p, Initial residual = 0.214559, Final residual = 0.0210278, No Iterations 197
time step continuity errors : sum local = 5.44149e-05, global = -2.86799e-06, cumulative = -2.84665e-05
ExecutionTime = 131.769 s  ClockTime = 131 s

Time = 86s

diagonalPBiCGStab:  Solving for Ux, Initial residual = 0.0131406, Final residual = 0.00129976, No Iterations 3
diagonalPBiCGStab:  Solving for Uy, Initial residual = 0.0228778, Final residual = 0.00223808, No Iterations 4
diagonalPBiCGStab:  Solving for Uz, Initial residual = 0.0236533, Final residual = 0.00176748, No Iterations 5
diagonalPCG:  Solving for p, Initial residual = 0.208741, Final residual = 0.0208061, No Iterations 543
time step continuity errors : sum local = 5.35536e-05, global = 1.3018e-06, cumulative = -2.71647e-05
ExecutionTime = 133.809 s  ClockTime = 133 s

Time = 87s

diagonalPBiCGStab:  Solving for Ux, Initial residual = 0.0179906, Final residual = 0.00153796, No Iterations 3
diagonalPBiCGStab:  Solving for Uy, Initial residual = 0.0221193, Final residual = 0.00109641, No Iterations 6
diagonalPBiCGStab:  Solving for Uz, Initial residual = 0.0273096, Final residual = 0.00213715, No Iterations 5
diagonalPCG:  Solving for p, Initial residual = 0.261177, Final residual = 0.0259705, No Iterations 186
time step continuity errors : sum local = 5.91079e-05, global = -5.91901e-06, cumulative = -3.30837e-05
ExecutionTime = 134.75 s  ClockTime = 134 s

Time = 88s

diagonalPBiCGStab:  Solving for Ux, Initial residual = 0.0171003, Final residual = 0.00140989, No Iterations 3
diagonalPBiCGStab:  Solving for Uy, Initial residual = 0.0198096, Final residual = 0.0018052, No Iterations 4
diagonalPBiCGStab:  Solving for Uz, Initial residual = 0.0236668, Final residual = 0.00185989, No Iterations 4
diagonalPCG:  Solving for p, Initial residual = 0.2546, Final residual = 0.0252731, No Iterations 186
time step continuity errors : sum local = 5.72086e-05, global = -9.59321e-07, cumulative = -3.4043e-05
ExecutionTime = 135.658 s  ClockTime = 135 s

Time = 89s

diagonalPBiCGStab:  Solving for Ux, Initial residual = 0.0151144, Final residual = 0.00136611, No Iterations 3
diagonalPBiCGStab:  Solving for Uy, Initial residual = 0.0217369, Final residual = 0.00167055, No Iterations 4
diagonalPBiCGStab:  Solving for Uz, Initial residual = 0.0234359, Final residual = 0.00193336, No Iterations 4
diagonalPCG:  Solving for p, Initial residual = 0.248586, Final residual = 0.0247935, No Iterations 32
time step continuity errors : sum local = 5.47503e-05, global = 1.55132e-06, cumulative = -3.24917e-05
ExecutionTime = 136.087 s  ClockTime = 136 s

Time = 90s

diagonalPBiCGStab:  Solving for Ux, Initial residual = 0.0150339, Final residual = 0.00130305, No Iterations 3
diagonalPBiCGStab:  Solving for Uy, Initial residual = 0.0216068, Final residual = 0.00204855, No Iterations 4
diagonalPBiCGStab:  Solving for Uz, Initial residual = 0.0228905, Final residual = 0.0022312, No Iterations 4
diagonalPCG:  Solving for p, Initial residual = 0.241965, Final residual = 0.024161, No Iterations 169
time step continuity errors : sum local = 5.30982e-05, global = 4.74852e-06, cumulative = -2.77432e-05
ExecutionTime = 136.976 s  ClockTime = 137 s

Time = 91s

diagonalPBiCGStab:  Solving for Ux, Initial residual = 0.0161298, Final residual = 0.00143427, No Iterations 3
diagonalPBiCGStab:  Solving for Uy, Initial residual = 0.0242016, Final residual = 0.0024175, No Iterations 4
diagonalPBiCGStab:  Solving for Uz, Initial residual = 0.0238111, Final residual = 0.000997251, No Iterations 6
diagonalPCG:  Solving for p, Initial residual = 0.243322, Final residual = 0.0240468, No Iterations 537
time step continuity errors : sum local = 5.30547e-05, global = 3.04679e-07, cumulative = -2.74385e-05
ExecutionTime = 138.989 s  ClockTime = 139 s

Time = 92s

diagonalPBiCGStab:  Solving for Ux, Initial residual = 0.0101798, Final residual = 0.000923115, No Iterations 4
diagonalPBiCGStab:  Solving for Uy, Initial residual = 0.0251096, Final residual = 0.0018348, No Iterations 5
diagonalPBiCGStab:  Solving for Uz, Initial residual = 0.0249079, Final residual = 0.00226199, No Iterations 4
diagonalPCG:  Solving for p, Initial residual = 0.247971, Final residual = 0.0241282, No Iterations 31
time step continuity errors : sum local = 5.38964e-05, global = 8.36104e-07, cumulative = -2.66024e-05
ExecutionTime = 139.429 s  ClockTime = 139 s

Time = 93s

diagonalPBiCGStab:  Solving for Ux, Initial residual = 0.00975336, Final residual = 0.000748662, No Iterations 4
diagonalPBiCGStab:  Solving for Uy, Initial residual = 0.0237583, Final residual = 0.00183111, No Iterations 4
diagonalPBiCGStab:  Solving for Uz, Initial residual = 0.0229132, Final residual = 0.00176614, No Iterations 4
diagonalPCG:  Solving for p, Initial residual = 0.244742, Final residual = 0.0244414, No Iterations 176
time step continuity errors : sum local = 5.46317e-05, global = -3.96011e-06, cumulative = -3.05625e-05
ExecutionTime = 140.308 s  ClockTime = 140 s

Time = 94s

diagonalPBiCGStab:  Solving for Ux, Initial residual = 0.0102342, Final residual = 0.00079259, No Iterations 4
diagonalPBiCGStab:  Solving for Uy, Initial residual = 0.0226992, Final residual = 0.00218148, No Iterations 4
diagonalPBiCGStab:  Solving for Uz, Initial residual = 0.0239657, Final residual = 0.00180546, No Iterations 4
diagonalPCG:  Solving for p, Initial residual = 0.243331, Final residual = 0.0243148, No Iterations 55
time step continuity errors : sum local = 5.48222e-05, global = -7.43613e-06, cumulative = -3.79986e-05
ExecutionTime = 140.814 s  ClockTime = 140 s

Time = 95s

diagonalPBiCGStab:  Solving for Ux, Initial residual = 0.0101792, Final residual = 0.000858842, No Iterations 4
diagonalPBiCGStab:  Solving for Uy, Initial residual = 0.0220356, Final residual = 0.00201465, No Iterations 4
diagonalPBiCGStab:  Solving for Uz, Initial residual = 0.0237606, Final residual = 0.0013964, No Iterations 5
diagonalPCG:  Solving for p, Initial residual = 0.240241, Final residual = 0.0239806, No Iterations 571
time step continuity errors : sum local = 5.44496e-05, global = 6.02067e-07, cumulative = -3.73966e-05
ExecutionTime = 142.953 s  ClockTime = 143 s

Time = 96s

diagonalPBiCGStab:  Solving for Ux, Initial residual = 0.0211693, Final residual = 0.00181036, No Iterations 3
diagonalPBiCGStab:  Solving for Uy, Initial residual = 0.0246393, Final residual = 0.0022607, No Iterations 5
diagonalPBiCGStab:  Solving for Uz, Initial residual = 0.0280132, Final residual = 0.00217777, No Iterations 5
diagonalPCG:  Solving for p, Initial residual = 0.234927, Final residual = 0.0231306, No Iterations 44
time step continuity errors : sum local = 5.98694e-05, global = 4.81517e-07, cumulative = -3.69151e-05
ExecutionTime = 143.43 s  ClockTime = 143 s

Time = 97s

diagonalPBiCGStab:  Solving for Ux, Initial residual = 0.0210451, Final residual = 0.00156326, No Iterations 3
diagonalPBiCGStab:  Solving for Uy, Initial residual = 0.0222678, Final residual = 0.00174517, No Iterations 5
diagonalPBiCGStab:  Solving for Uz, Initial residual = 0.0236503, Final residual = 0.00217272, No Iterations 5
diagonalPCG:  Solving for p, Initial residual = 0.22624, Final residual = 0.0226128, No Iterations 551
time step continuity errors : sum local = 5.90031e-05, global = 9.93384e-07, cumulative = -3.59217e-05
ExecutionTime = 145.484 s  ClockTime = 145 s

Time = 98s

diagonalPBiCGStab:  Solving for Ux, Initial residual = 0.011561, Final residual = 0.00102778, No Iterations 4
diagonalPBiCGStab:  Solving for Uy, Initial residual = 0.0274907, Final residual = 0.00261246, No Iterations 5
diagonalPBiCGStab:  Solving for Uz, Initial residual = 0.0265366, Final residual = 0.00164733, No Iterations 6
diagonalPCG:  Solving for p, Initial residual = 0.285239, Final residual = 0.0284557, No Iterations 499
time step continuity errors : sum local = 5.50733e-05, global = 2.66444e-06, cumulative = -3.32572e-05
ExecutionTime = 147.418 s  ClockTime = 147 s

Time = 99s

diagonalPBiCGStab:  Solving for Ux, Initial residual = 0.0171945, Final residual = 0.0016728, No Iterations 3
diagonalPBiCGStab:  Solving for Uy, Initial residual = 0.0295657, Final residual = 0.00175219, No Iterations 5
diagonalPBiCGStab:  Solving for Uz, Initial residual = 0.026601, Final residual = 0.00125149, No Iterations 6
diagonalPCG:  Solving for p, Initial residual = 0.232017, Final residual = 0.0229532, No Iterations 48
time step continuity errors : sum local = 6.17775e-05, global = 1.34662e-06, cumulative = -3.19106e-05
ExecutionTime = 147.912 s  ClockTime = 148 s

Time = 100s

diagonalPBiCGStab:  Solving for Ux, Initial residual = 0.0169594, Final residual = 0.00147892, No Iterations 3
diagonalPBiCGStab:  Solving for Uy, Initial residual = 0.0272749, Final residual = 0.00262585, No Iterations 4
diagonalPBiCGStab:  Solving for Uz, Initial residual = 0.0244004, Final residual = 0.00201589, No Iterations 5
diagonalPCG:  Solving for p, Initial residual = 0.225233, Final residual = 0.0224215, No Iterations 93
time step continuity errors : sum local = 6.08122e-05, global = -3.7987e-06, cumulative = -3.57093e-05
ExecutionTime = 148.534 s  ClockTime = 148 s

Time = 101s

diagonalPBiCGStab:  Solving for Ux, Initial residual = 0.0166821, Final residual = 0.00152087, No Iterations 3
diagonalPBiCGStab:  Solving for Uy, Initial residual = 0.0247388, Final residual = 0.00232113, No Iterations 4
diagonalPBiCGStab:  Solving for Uz, Initial residual = 0.0248429, Final residual = 0.00243401, No Iterations 4
diagonalPCG:  Solving for p, Initial residual = 0.218726, Final residual = 0.0216926, No Iterations 45
time step continuity errors : sum local = 5.98566e-05, global = -9.47856e-06, cumulative = -4.51879e-05
ExecutionTime = 148.996 s  ClockTime = 149 s

Time = 102s

diagonalPBiCGStab:  Solving for Ux, Initial residual = 0.016222, Final residual = 0.00140933, No Iterations 3
diagonalPBiCGStab:  Solving for Uy, Initial residual = 0.0246152, Final residual = 0.00209767, No Iterations 5
diagonalPBiCGStab:  Solving for Uz, Initial residual = 0.0245431, Final residual = 0.00180239, No Iterations 4
diagonalPCG:  Solving for p, Initial residual = 0.213238, Final residual = 0.0207819, No Iterations 570
time step continuity errors : sum local = 5.79565e-05, global = 1.34578e-08, cumulative = -4.51744e-05
ExecutionTime = 151.102 s  ClockTime = 151 s

Time = 103s

diagonalPBiCGStab:  Solving for Ux, Initial residual = 0.0176621, Final residual = 0.00174848, No Iterations 3
diagonalPBiCGStab:  Solving for Uy, Initial residual = 0.0270561, Final residual = 0.002484, No Iterations 6
diagonalPBiCGStab:  Solving for Uz, Initial residual = 0.028647, Final residual = 0.00233214, No Iterations 5
diagonalPCG:  Solving for p, Initial residual = 0.27168, Final residual = 0.0270058, No Iterations 95
time step continuity errors : sum local = 6.36577e-05, global = -3.88627e-07, cumulative = -4.5563e-05
ExecutionTime = 151.751 s  ClockTime = 151 s

Time = 104s

diagonalPBiCGStab:  Solving for Ux, Initial residual = 0.0172371, Final residual = 0.00132535, No Iterations 4
diagonalPBiCGStab:  Solving for Uy, Initial residual = 0.025077, Final residual = 0.00236043, No Iterations 4
diagonalPBiCGStab:  Solving for Uz, Initial residual = 0.0240103, Final residual = 0.00153378, No Iterations 5
diagonalPCG:  Solving for p, Initial residual = 0.262804, Final residual = 0.026207, No Iterations 576
time step continuity errors : sum local = 6.20761e-05, global = 1.51122e-06, cumulative = -4.40518e-05
ExecutionTime = 153.892 s  ClockTime = 154 s

Time = 105s

diagonalPBiCGStab:  Solving for Ux, Initial residual = 0.0146994, Final residual = 0.0014668, No Iterations 4
diagonalPBiCGStab:  Solving for Uy, Initial residual = 0.0290165, Final residual = 0.0020713, No Iterations 5
diagonalPBiCGStab:  Solving for Uz, Initial residual = 0.0271141, Final residual = 0.00207714, No Iterations 5
diagonalPCG:  Solving for p, Initial residual = 0.253449, Final residual = 0.0248541, No Iterations 507
time step continuity errors : sum local = 5.95033e-05, global = -1.62858e-06, cumulative = -4.56804e-05
ExecutionTime = 155.835 s  ClockTime = 155 s

Time = 106s

diagonalPBiCGStab:  Solving for Ux, Initial residual = 0.0248562, Final residual = 0.00185928, No Iterations 3
diagonalPBiCGStab:  Solving for Uy, Initial residual = 0.0297625, Final residual = 0.00119414, No Iterations 6
diagonalPBiCGStab:  Solving for Uz, Initial residual = 0.0275108, Final residual = 0.00202494, No Iterations 5
diagonalPCG:  Solving for p, Initial residual = 0.205787, Final residual = 0.0204145, No Iterations 190
time step continuity errors : sum local = 6.89007e-05, global = -9.14414e-07, cumulative = -4.65948e-05
ExecutionTime = 156.778 s  ClockTime = 156 s

Time = 107s

diagonalPBiCGStab:  Solving for Ux, Initial residual = 0.0246667, Final residual = 0.00181493, No Iterations 3
diagonalPBiCGStab:  Solving for Uy, Initial residual = 0.0287174, Final residual = 0.00241116, No Iterations 4
diagonalPBiCGStab:  Solving for Uz, Initial residual = 0.0252249, Final residual = 0.00153223, No Iterations 5
diagonalPCG:  Solving for p, Initial residual = 0.198353, Final residual = 0.0196588, No Iterations 667
time step continuity errors : sum local = 6.61654e-05, global = -5.70608e-07, cumulative = -4.71654e-05
ExecutionTime = 159.185 s  ClockTime = 159 s

Time = 108s

diagonalPBiCGStab:  Solving for Ux, Initial residual = 0.0126679, Final residual = 0.00103127, No Iterations 4
diagonalPBiCGStab:  Solving for Uy, Initial residual = 0.0264499, Final residual = 0.00255489, No Iterations 6
diagonalPBiCGStab:  Solving for Uz, Initial residual = 0.02655, Final residual = 0.00225872, No Iterations 5
diagonalPCG:  Solving for p, Initial residual = 0.250731, Final residual = 0.0248553, No Iterations 187
time step continuity errors : sum local = 5.96091e-05, global = -4.80248e-06, cumulative = -5.19679e-05
ExecutionTime = 160.12 s  ClockTime = 160 s

Time = 109s

diagonalPBiCGStab:  Solving for Ux, Initial residual = 0.0111513, Final residual = 0.000888955, No Iterations 4
diagonalPBiCGStab:  Solving for Uy, Initial residual = 0.0249532, Final residual = 0.00249191, No Iterations 5
diagonalPBiCGStab:  Solving for Uz, Initial residual = 0.0234067, Final residual = 0.00148307, No Iterations 5
diagonalPCG:  Solving for p, Initial residual = 0.253744, Final residual = 0.0250564, No Iterations 184
time step continuity errors : sum local = 5.8696e-05, global = -3.9932e-06, cumulative = -5.59611e-05
ExecutionTime = 161.052 s  ClockTime = 161 s

Time = 110s

diagonalPBiCGStab:  Solving for Ux, Initial residual = 0.0102238, Final residual = 0.00100869, No Iterations 4
diagonalPBiCGStab:  Solving for Uy, Initial residual = 0.0263624, Final residual = 0.00246556, No Iterations 4
diagonalPBiCGStab:  Solving for Uz, Initial residual = 0.0220191, Final residual = 0.00190543, No Iterations 4
diagonalPCG:  Solving for p, Initial residual = 0.244135, Final residual = 0.0242634, No Iterations 166
time step continuity errors : sum local = 5.65207e-05, global = -1.53576e-06, cumulative = -5.74969e-05
ExecutionTime = 161.903 s  ClockTime = 162 s

Time = 111s

diagonalPBiCGStab:  Solving for Ux, Initial residual = 0.0101954, Final residual = 0.000950572, No Iterations 4
diagonalPBiCGStab:  Solving for Uy, Initial residual = 0.0250953, Final residual = 0.00225038, No Iterations 4
diagonalPBiCGStab:  Solving for Uz, Initial residual = 0.0218675, Final residual = 0.00172352, No Iterations 4
diagonalPCG:  Solving for p, Initial residual = 0.234216, Final residual = 0.0232726, No Iterations 32
time step continuity errors : sum local = 5.51747e-05, global = 8.14007e-07, cumulative = -5.66829e-05
ExecutionTime = 162.336 s  ClockTime = 162 s

Time = 112s

diagonalPBiCGStab:  Solving for Ux, Initial residual = 0.00984173, Final residual = 0.000912756, No Iterations 4
diagonalPBiCGStab:  Solving for Uy, Initial residual = 0.0247767, Final residual = 0.00232826, No Iterations 4
diagonalPBiCGStab:  Solving for Uz, Initial residual = 0.0214613, Final residual = 0.00157092, No Iterations 4
diagonalPCG:  Solving for p, Initial residual = 0.229237, Final residual = 0.0228215, No Iterations 65
time step continuity errors : sum local = 5.40943e-05, global = 1.81407e-06, cumulative = -5.48688e-05
ExecutionTime = 162.873 s  ClockTime = 163 s

Time = 113s

diagonalPBiCGStab:  Solving for Ux, Initial residual = 0.00977116, Final residual = 0.000872161, No Iterations 4
diagonalPBiCGStab:  Solving for Uy, Initial residual = 0.0248376, Final residual = 0.00190755, No Iterations 4
diagonalPBiCGStab:  Solving for Uz, Initial residual = 0.0220398, Final residual = 0.00185553, No Iterations 4
diagonalPCG:  Solving for p, Initial residual = 0.225419, Final residual = 0.0225339, No Iterations 241
time step continuity errors : sum local = 5.32976e-05, global = 4.12673e-06, cumulative = -5.07421e-05
ExecutionTime = 163.958 s  ClockTime = 164 s

Time = 114s

diagonalPBiCGStab:  Solving for Ux, Initial residual = 0.00956029, Final residual = 0.000894202, No Iterations 4
diagonalPBiCGStab:  Solving for Uy, Initial residual = 0.0242497, Final residual = 0.00188687, No Iterations 4
diagonalPBiCGStab:  Solving for Uz, Initial residual = 0.0219198, Final residual = 0.00203439, No Iterations 4
diagonalPCG:  Solving for p, Initial residual = 0.226819, Final residual = 0.0223493, No Iterations 31
time step continuity errors : sum local = 5.31454e-05, global = 3.96533e-06, cumulative = -4.67767e-05
ExecutionTime = 164.39 s  ClockTime = 164 s

Time = 115s

diagonalPBiCGStab:  Solving for Ux, Initial residual = 0.00923149, Final residual = 0.000853574, No Iterations 4
diagonalPBiCGStab:  Solving for Uy, Initial residual = 0.0233018, Final residual = 0.00167712, No Iterations 4
diagonalPBiCGStab:  Solving for Uz, Initial residual = 0.0208792, Final residual = 0.00156851, No Iterations 4
diagonalPCG:  Solving for p, Initial residual = 0.223163, Final residual = 0.0222698, No Iterations 518
time step continuity errors : sum local = 5.30012e-05, global = -1.52152e-06, cumulative = -4.82983e-05
ExecutionTime = 166.362 s  ClockTime = 166 s

Time = 116s

diagonalPBiCGStab:  Solving for Ux, Initial residual = 0.0162131, Final residual = 0.00133098, No Iterations 3
diagonalPBiCGStab:  Solving for Uy, Initial residual = 0.0237831, Final residual = 0.00232691, No Iterations 6
diagonalPBiCGStab:  Solving for Uz, Initial residual = 0.0211421, Final residual = 0.00209709, No Iterations 4
diagonalPCG:  Solving for p, Initial residual = 0.186587, Final residual = 0.018348, No Iterations 39
time step continuity errors : sum local = 5.6687e-05, global = -1.97705e-06, cumulative = -5.02753e-05
ExecutionTime = 166.822 s  ClockTime = 166 s

Time = 117s

diagonalPBiCGStab:  Solving for Ux, Initial residual = 0.0156503, Final residual = 0.00109464, No Iterations 3
diagonalPBiCGStab:  Solving for Uy, Initial residual = 0.022671, Final residual = 0.0013673, No Iterations 5
diagonalPBiCGStab:  Solving for Uz, Initial residual = 0.0196723, Final residual = 0.00149313, No Iterations 4
diagonalPCG:  Solving for p, Initial residual = 0.183328, Final residual = 0.0181943, No Iterations 202
time step continuity errors : sum local = 5.66022e-05, global = -3.37676e-06, cumulative = -5.36521e-05
ExecutionTime = 167.784 s  ClockTime = 167 s

Time = 118s

diagonalPBiCGStab:  Solving for Ux, Initial residual = 0.0147985, Final residual = 0.00124306, No Iterations 3
diagonalPBiCGStab:  Solving for Uy, Initial residual = 0.0262049, Final residual = 0.0019132, No Iterations 4
diagonalPBiCGStab:  Solving for Uz, Initial residual = 0.0198923, Final residual = 0.00160339, No Iterations 4
diagonalPCG:  Solving for p, Initial residual = 0.189156, Final residual = 0.0187596, No Iterations 522
time step continuity errors : sum local = 5.68968e-05, global = 5.13031e-07, cumulative = -5.3139e-05
ExecutionTime = 169.743 s  ClockTime = 169 s

Time = 119s

diagonalPBiCGStab:  Solving for Ux, Initial residual = 0.0102796, Final residual = 0.000955586, No Iterations 4
diagonalPBiCGStab:  Solving for Uy, Initial residual = 0.0255677, Final residual = 0.00233569, No Iterations 5
diagonalPBiCGStab:  Solving for Uz, Initial residual = 0.0215342, Final residual = 0.000576754, No Iterations 7
diagonalPCG:  Solving for p, Initial residual = 0.289392, Final residual = 0.0288189, No Iterations 147
time step continuity errors : sum local = 6.00658e-05, global = -2.54044e-06, cumulative = -5.56795e-05
ExecutionTime = 170.557 s  ClockTime = 170 s

Time = 120s

diagonalPBiCGStab:  Solving for Ux, Initial residual = 0.00889517, Final residual = 0.000868588, No Iterations 4
diagonalPBiCGStab:  Solving for Uy, Initial residual = 0.0226284, Final residual = 0.00218801, No Iterations 4
diagonalPBiCGStab:  Solving for Uz, Initial residual = 0.0195538, Final residual = 0.00170691, No Iterations 4
diagonalPCG:  Solving for p, Initial residual = 0.279571, Final residual = 0.0279399, No Iterations 168
time step continuity errors : sum local = 5.88777e-05, global = 2.91447e-06, cumulative = -5.2765e-05
ExecutionTime = 171.428 s  ClockTime = 171 s

Time = 121s

diagonalPBiCGStab:  Solving for Ux, Initial residual = 0.00798063, Final residual = 0.00077883, No Iterations 4
diagonalPBiCGStab:  Solving for Uy, Initial residual = 0.0221463, Final residual = 0.00177608, No Iterations 4
diagonalPBiCGStab:  Solving for Uz, Initial residual = 0.0189011, Final residual = 0.00151592, No Iterations 4
diagonalPCG:  Solving for p, Initial residual = 0.2617, Final residual = 0.0258919, No Iterations 331
time step continuity errors : sum local = 5.54194e-05, global = 2.73812e-06, cumulative = -5.00269e-05
ExecutionTime = 172.804 s  ClockTime = 172 s

Time = 122s

diagonalPBiCGStab:  Solving for Ux, Initial residual = 0.00897839, Final residual = 0.000827939, No Iterations 4
diagonalPBiCGStab:  Solving for Uy, Initial residual = 0.0222636, Final residual = 0.00184382, No Iterations 4
diagonalPBiCGStab:  Solving for Uz, Initial residual = 0.0184228, Final residual = 0.00168261, No Iterations 4
diagonalPCG:  Solving for p, Initial residual = 0.242682, Final residual = 0.0242378, No Iterations 639
time step continuity errors : sum local = 5.4989e-05, global = 3.46669e-07, cumulative = -4.96802e-05
ExecutionTime = 175.132 s  ClockTime = 175 s

Time = 123s

diagonalPBiCGStab:  Solving for Ux, Initial residual = 0.0138376, Final residual = 0.000944538, No Iterations 4
diagonalPBiCGStab:  Solving for Uy, Initial residual = 0.0233758, Final residual = 0.00217273, No Iterations 4
diagonalPBiCGStab:  Solving for Uz, Initial residual = 0.0190436, Final residual = 0.00185949, No Iterations 4
diagonalPCG:  Solving for p, Initial residual = 0.193751, Final residual = 0.0193694, No Iterations 177
time step continuity errors : sum local = 5.83626e-05, global = -1.20156e-06, cumulative = -5.08818e-05
ExecutionTime = 176.029 s  ClockTime = 176 s

Time = 124s

diagonalPBiCGStab:  Solving for Ux, Initial residual = 0.013107, Final residual = 0.000856869, No Iterations 4
diagonalPBiCGStab:  Solving for Uy, Initial residual = 0.0222354, Final residual = 0.00218963, No Iterations 4
diagonalPBiCGStab:  Solving for Uz, Initial residual = 0.0184646, Final residual = 0.00148841, No Iterations 4
diagonalPCG:  Solving for p, Initial residual = 0.185449, Final residual = 0.0185259, No Iterations 536
time step continuity errors : sum local = 5.61596e-05, global = 4.12904e-07, cumulative = -5.04689e-05
ExecutionTime = 178.006 s  ClockTime = 178 s

Time = 125s

diagonalPBiCGStab:  Solving for Ux, Initial residual = 0.0109906, Final residual = 0.000889764, No Iterations 4
diagonalPBiCGStab:  Solving for Uy, Initial residual = 0.0226716, Final residual = 0.00181073, No Iterations 5
diagonalPBiCGStab:  Solving for Uz, Initial residual = 0.0198192, Final residual = 0.00192035, No Iterations 4
diagonalPCG:  Solving for p, Initial residual = 0.277854, Final residual = 0.0276418, No Iterations 655
time step continuity errors : sum local = 5.75894e-05, global = 2.42268e-07, cumulative = -5.02266e-05
ExecutionTime = 180.433 s  ClockTime = 180 s

Time = 126s

diagonalPBiCGStab:  Solving for Ux, Initial residual = 0.0139245, Final residual = 0.00113529, No Iterations 3
diagonalPBiCGStab:  Solving for Uy, Initial residual = 0.020601, Final residual = 0.0012118, No Iterations 5
diagonalPBiCGStab:  Solving for Uz, Initial residual = 0.0190533, Final residual = 0.00170897, No Iterations 4
diagonalPCG:  Solving for p, Initial residual = 0.256372, Final residual = 0.0255016, No Iterations 177
time step continuity errors : sum local = 6.0338e-05, global = 1.06845e-06, cumulative = -4.91582e-05
ExecutionTime = 181.322 s  ClockTime = 181 s

Time = 127s

diagonalPBiCGStab:  Solving for Ux, Initial residual = 0.0143768, Final residual = 0.000909949, No Iterations 4
diagonalPBiCGStab:  Solving for Uy, Initial residual = 0.0197585, Final residual = 0.00175432, No Iterations 4
diagonalPBiCGStab:  Solving for Uz, Initial residual = 0.017829, Final residual = 0.0014899, No Iterations 4
diagonalPCG:  Solving for p, Initial residual = 0.257523, Final residual = 0.0256434, No Iterations 603
time step continuity errors : sum local = 5.75248e-05, global = -1.48508e-06, cumulative = -5.06432e-05
ExecutionTime = 183.518 s  ClockTime = 183 s

Time = 128s

diagonalPBiCGStab:  Solving for Ux, Initial residual = 0.0090141, Final residual = 0.000888382, No Iterations 4
diagonalPBiCGStab:  Solving for Uy, Initial residual = 0.0223401, Final residual = 0.00191514, No Iterations 4
diagonalPBiCGStab:  Solving for Uz, Initial residual = 0.0186507, Final residual = 0.00172386, No Iterations 4
diagonalPCG:  Solving for p, Initial residual = 0.247555, Final residual = 0.0244629, No Iterations 217
time step continuity errors : sum local = 5.33243e-05, global = 4.11624e-06, cumulative = -4.6527e-05
ExecutionTime = 184.535 s  ClockTime = 184 s

Time = 129s

diagonalPBiCGStab:  Solving for Ux, Initial residual = 0.00815677, Final residual = 0.000814066, No Iterations 4
diagonalPBiCGStab:  Solving for Uy, Initial residual = 0.0227687, Final residual = 0.0018489, No Iterations 4
diagonalPBiCGStab:  Solving for Uz, Initial residual = 0.0179388, Final residual = 0.00157775, No Iterations 4
diagonalPCG:  Solving for p, Initial residual = 0.244908, Final residual = 0.0244292, No Iterations 197
time step continuity errors : sum local = 5.17029e-05, global = 3.2531e-06, cumulative = -4.32739e-05
ExecutionTime = 185.493 s  ClockTime = 185 s

Time = 130s

diagonalPBiCGStab:  Solving for Ux, Initial residual = 0.0104781, Final residual = 0.000784151, No Iterations 4
diagonalPBiCGStab:  Solving for Uy, Initial residual = 0.0222391, Final residual = 0.00174367, No Iterations 4
diagonalPBiCGStab:  Solving for Uz, Initial residual = 0.0178634, Final residual = 0.00149722, No Iterations 4
diagonalPCG:  Solving for p, Initial residual = 0.252566, Final residual = 0.0251159, No Iterations 178
time step continuity errors : sum local = 5.21449e-05, global = 5.03863e-07, cumulative = -4.277e-05
ExecutionTime = 186.376 s  ClockTime = 186 s

Time = 131s

diagonalPBiCGStab:  Solving for Ux, Initial residual = 0.00904882, Final residual = 0.000774435, No Iterations 4
diagonalPBiCGStab:  Solving for Uy, Initial residual = 0.0211011, Final residual = 0.00178427, No Iterations 4
diagonalPBiCGStab:  Solving for Uz, Initial residual = 0.017944, Final residual = 0.00147792, No Iterations 4
diagonalPCG:  Solving for p, Initial residual = 0.24317, Final residual = 0.0239987, No Iterations 159
time step continuity errors : sum local = 4.99304e-05, global = 1.39992e-07, cumulative = -4.263e-05
ExecutionTime = 187.218 s  ClockTime = 187 s

Time = 132s

diagonalPBiCGStab:  Solving for Ux, Initial residual = 0.00898553, Final residual = 0.000752806, No Iterations 4
diagonalPBiCGStab:  Solving for Uy, Initial residual = 0.0215022, Final residual = 0.00206735, No Iterations 4
diagonalPBiCGStab:  Solving for Uz, Initial residual = 0.0174539, Final residual = 0.00143135, No Iterations 4
[...]
diagonalPCG:  Solving for p, Initial residual = 0.256637, Final residual = 0.0252816, No Iterations 525
time step continuity errors : sum local = 9.67643e-05, global = 1.68138e-06, cumulative = -0.000110048
ExecutionTime = 484.572 s  ClockTime = 484 s

Time = 468s

diagonalPBiCGStab:  Solving for Ux, Initial residual = 0.0169757, Final residual = 0.00159938, No Iterations 4
diagonalPBiCGStab:  Solving for Uy, Initial residual = 0.0391319, Final residual = 0.0033098, No Iterations 4
diagonalPBiCGStab:  Solving for Uz, Initial residual = 0.0275998, Final residual = 0.00198616, No Iterations 5
diagonalPCG:  Solving for p, Initial residual = 0.232475, Final residual = 0.0226972, No Iterations 26
time step continuity errors : sum local = 0.00010476, global = 5.66781e-06, cumulative = -0.00010438
ExecutionTime = 484.994 s  ClockTime = 485 s

Time = 469s

diagonalPBiCGStab:  Solving for Ux, Initial residual = 0.016383, Final residual = 0.00127092, No Iterations 4
diagonalPBiCGStab:  Solving for Uy, Initial residual = 0.0362093, Final residual = 0.00278375, No Iterations 4
diagonalPBiCGStab:  Solving for Uz, Initial residual = 0.0236384, Final residual = 0.00200593, No Iterations 4
diagonalPCG:  Solving for p, Initial residual = 0.230535, Final residual = 0.0228813, No Iterations 63
time step continuity errors : sum local = 0.000106049, global = -2.57451e-06, cumulative = -0.000106955
ExecutionTime = 485.529 s  ClockTime = 485 s

Time = 470s

diagonalPBiCGStab:  Solving for Ux, Initial residual = 0.0158586, Final residual = 0.00130987, No Iterations 4
diagonalPBiCGStab:  Solving for Uy, Initial residual = 0.0341677, Final residual = 0.0027784, No Iterations 4
diagonalPBiCGStab:  Solving for Uz, Initial residual = 0.0242392, Final residual = 0.00214725, No Iterations 4
diagonalPCG:  Solving for p, Initial residual = 0.226178, Final residual = 0.0224794, No Iterations 87
time step continuity errors : sum local = 0.000105115, global = -7.73074e-06, cumulative = -0.000114685
ExecutionTime = 486.137 s  ClockTime = 486 s

Time = 471s

diagonalPBiCGStab:  Solving for Ux, Initial residual = 0.0157952, Final residual = 0.00139924, No Iterations 4
diagonalPBiCGStab:  Solving for Uy, Initial residual = 0.0348667, Final residual = 0.00278392, No Iterations 4
diagonalPBiCGStab:  Solving for Uz, Initial residual = 0.0248081, Final residual = 0.00244165, No Iterations 4
diagonalPCG:  Solving for p, Initial residual = 0.227543, Final residual = 0.0224771, No Iterations 577
time step continuity errors : sum local = 0.000105685, global = -2.07354e-06, cumulative = -0.000116759
ExecutionTime = 488.316 s  ClockTime = 488 s

Time = 472s

diagonalPBiCGStab:  Solving for Ux, Initial residual = 0.0142471, Final residual = 0.00123172, No Iterations 4
diagonalPBiCGStab:  Solving for Uy, Initial residual = 0.0393156, Final residual = 0.00334218, No Iterations 4
diagonalPBiCGStab:  Solving for Uz, Initial residual = 0.0282897, Final residual = 0.00197209, No Iterations 5
diagonalPCG:  Solving for p, Initial residual = 0.289266, Final residual = 0.0283529, No Iterations 55
time step continuity errors : sum local = 0.000109405, global = -5.22876e-06, cumulative = -0.000121988
ExecutionTime = 488.829 s  ClockTime = 488 s

Time = 473s

diagonalPBiCGStab:  Solving for Ux, Initial residual = 0.0140841, Final residual = 0.000595863, No Iterations 6
diagonalPBiCGStab:  Solving for Uy, Initial residual = 0.0356819, Final residual = 0.00278508, No Iterations 4
diagonalPBiCGStab:  Solving for Uz, Initial residual = 0.0253833, Final residual = 0.00245489, No Iterations 4
diagonalPCG:  Solving for p, Initial residual = 0.283726, Final residual = 0.0282064, No Iterations 63
time step continuity errors : sum local = 0.000109162, global = -5.58172e-08, cumulative = -0.000122044
ExecutionTime = 489.381 s  ClockTime = 489 s

Time = 474s

diagonalPBiCGStab:  Solving for Ux, Initial residual = 0.0141692, Final residual = 0.00111965, No Iterations 4
diagonalPBiCGStab:  Solving for Uy, Initial residual = 0.0344442, Final residual = 0.00282333, No Iterations 4
diagonalPBiCGStab:  Solving for Uz, Initial residual = 0.0258308, Final residual = 0.00175569, No Iterations 5
diagonalPCG:  Solving for p, Initial residual = 0.278842, Final residual = 0.0278551, No Iterations 216
time step continuity errors : sum local = 0.000106534, global = 1.15143e-05, cumulative = -0.000110529
ExecutionTime = 490.391 s  ClockTime = 490 s

Time = 475s

diagonalPBiCGStab:  Solving for Ux, Initial residual = 0.0147233, Final residual = 0.00138591, No Iterations 4
diagonalPBiCGStab:  Solving for Uy, Initial residual = 0.0358011, Final residual = 0.00298221, No Iterations 4
diagonalPBiCGStab:  Solving for Uz, Initial residual = 0.0261081, Final residual = 0.00259955, No Iterations 6
diagonalPCG:  Solving for p, Initial residual = 0.290306, Final residual = 0.0288144, No Iterations 26
time step continuity errors : sum local = 0.000105214, global = 1.68318e-05, cumulative = -9.36975e-05
ExecutionTime = 490.818 s  ClockTime = 490 s

Time = 476s

diagonalPBiCGStab:  Solving for Ux, Initial residual = 0.014663, Final residual = 0.00131244, No Iterations 4
diagonalPBiCGStab:  Solving for Uy, Initial residual = 0.0353542, Final residual = 0.00289609, No Iterations 4
diagonalPBiCGStab:  Solving for Uz, Initial residual = 0.025322, Final residual = 0.00248446, No Iterations 4
diagonalPCG:  Solving for p, Initial residual = 0.288555, Final residual = 0.0287328, No Iterations 575
time step continuity errors : sum local = 0.000104686, global = 1.03134e-06, cumulative = -9.26661e-05
ExecutionTime = 492.997 s  ClockTime = 493 s

Time = 477s

diagonalPBiCGStab:  Solving for Ux, Initial residual = 0.0200862, Final residual = 0.00166377, No Iterations 4
diagonalPBiCGStab:  Solving for Uy, Initial residual = 0.0376877, Final residual = 0.00351529, No Iterations 4
diagonalPBiCGStab:  Solving for Uz, Initial residual = 0.0290872, Final residual = 0.00275791, No Iterations 4
diagonalPCG:  Solving for p, Initial residual = 0.242264, Final residual = 0.023688, No Iterations 33
time step continuity errors : sum local = 0.000116371, global = 3.29034e-06, cumulative = -8.93758e-05
ExecutionTime = 493.436 s  ClockTime = 493 s

Time = 478s

diagonalPBiCGStab:  Solving for Ux, Initial residual = 0.0194918, Final residual = 0.00152245, No Iterations 4
diagonalPBiCGStab:  Solving for Uy, Initial residual = 0.0347427, Final residual = 0.00295043, No Iterations 4
diagonalPBiCGStab:  Solving for Uz, Initial residual = 0.0258839, Final residual = 0.00253013, No Iterations 4
diagonalPCG:  Solving for p, Initial residual = 0.238563, Final residual = 0.0238088, No Iterations 88
time step continuity errors : sum local = 0.000116797, global = -1.20635e-05, cumulative = -0.000101439
ExecutionTime = 494.039 s  ClockTime = 494 s

Time = 479s

diagonalPBiCGStab:  Solving for Ux, Initial residual = 0.0183765, Final residual = 0.00155136, No Iterations 4
diagonalPBiCGStab:  Solving for Uy, Initial residual = 0.0381046, Final residual = 0.00312367, No Iterations 4
diagonalPBiCGStab:  Solving for Uz, Initial residual = 0.0265429, Final residual = 0.00256315, No Iterations 4
diagonalPCG:  Solving for p, Initial residual = 0.233406, Final residual = 0.0230048, No Iterations 461
time step continuity errors : sum local = 0.000114981, global = 7.67955e-07, cumulative = -0.000100671
ExecutionTime = 495.828 s  ClockTime = 495 s

Time = 480s

diagonalPBiCGStab:  Solving for Ux, Initial residual = 0.0183723, Final residual = 0.00139327, No Iterations 4
diagonalPBiCGStab:  Solving for Uy, Initial residual = 0.0402071, Final residual = 0.00305051, No Iterations 5
diagonalPBiCGStab:  Solving for Uz, Initial residual = 0.0306171, Final residual = 0.00226698, No Iterations 5
diagonalPCG:  Solving for p, Initial residual = 0.290844, Final residual = 0.0290693, No Iterations 36
time step continuity errors : sum local = 0.000122483, global = -7.49564e-06, cumulative = -0.000108167
ExecutionTime = 496.293 s  ClockTime = 496 s

Time = 481s

diagonalPBiCGStab:  Solving for Ux, Initial residual = 0.0181783, Final residual = 0.00168348, No Iterations 4
diagonalPBiCGStab:  Solving for Uy, Initial residual = 0.0359064, Final residual = 0.00306051, No Iterations 4
diagonalPBiCGStab:  Solving for Uz, Initial residual = 0.0261852, Final residual = 0.00221433, No Iterations 4
diagonalPCG:  Solving for p, Initial residual = 0.282508, Final residual = 0.0282093, No Iterations 81
time step continuity errors : sum local = 0.000120082, global = 1.27529e-06, cumulative = -0.000106892
ExecutionTime = 496.884 s  ClockTime = 497 s

Time = 482s

diagonalPBiCGStab:  Solving for Ux, Initial residual = 0.017629, Final residual = 0.00174021, No Iterations 4
diagonalPBiCGStab:  Solving for Uy, Initial residual = 0.0344829, Final residual = 0.00288039, No Iterations 5
diagonalPBiCGStab:  Solving for Uz, Initial residual = 0.026029, Final residual = 0.00139276, No Iterations 6
diagonalPCG:  Solving for p, Initial residual = 0.274732, Final residual = 0.0273684, No Iterations 244
time step continuity errors : sum local = 0.000114564, global = 1.24707e-05, cumulative = -9.4421e-05
ExecutionTime = 498.011 s  ClockTime = 498 s

Time = 483s

diagonalPBiCGStab:  Solving for Ux, Initial residual = 0.0190633, Final residual = 0.0019062, No Iterations 4
diagonalPBiCGStab:  Solving for Uy, Initial residual = 0.0345772, Final residual = 0.00312328, No Iterations 4
diagonalPBiCGStab:  Solving for Uz, Initial residual = 0.0262213, Final residual = 0.00236031, No Iterations 4
diagonalPCG:  Solving for p, Initial residual = 0.280285, Final residual = 0.0274626, No Iterations 32
time step continuity errors : sum local = 0.000111804, global = 2.04479e-05, cumulative = -7.3973e-05
ExecutionTime = 498.444 s  ClockTime = 498 s

Time = 484s

diagonalPBiCGStab:  Solving for Ux, Initial residual = 0.0188806, Final residual = 0.0014003, No Iterations 4
diagonalPBiCGStab:  Solving for Uy, Initial residual = 0.0335475, Final residual = 0.00281487, No Iterations 4
diagonalPBiCGStab:  Solving for Uz, Initial residual = 0.0248875, Final residual = 0.00154308, No Iterations 6
diagonalPCG:  Solving for p, Initial residual = 0.276774, Final residual = 0.02755, No Iterations 544
time step continuity errors : sum local = 0.000111198, global = 3.31949e-06, cumulative = -7.06535e-05
ExecutionTime = 500.472 s  ClockTime = 500 s

Time = 485s

diagonalPBiCGStab:  Solving for Ux, Initial residual = 0.0181711, Final residual = 0.00157344, No Iterations 4
diagonalPBiCGStab:  Solving for Uy, Initial residual = 0.037659, Final residual = 0.00300656, No Iterations 5
diagonalPBiCGStab:  Solving for Uz, Initial residual = 0.0281357, Final residual = 0.0026005, No Iterations 4
diagonalPCG:  Solving for p, Initial residual = 0.261211, Final residual = 0.0260673, No Iterations 52
time step continuity errors : sum local = 0.000119129, global = 1.51827e-06, cumulative = -6.91353e-05
ExecutionTime = 500.979 s  ClockTime = 501 s

Time = 486s

diagonalPBiCGStab:  Solving for Ux, Initial residual = 0.0177671, Final residual = 0.00158017, No Iterations 4
diagonalPBiCGStab:  Solving for Uy, Initial residual = 0.0351493, Final residual = 0.0030314, No Iterations 4
diagonalPBiCGStab:  Solving for Uz, Initial residual = 0.0248472, Final residual = 0.0022121, No Iterations 4
diagonalPCG:  Solving for p, Initial residual = 0.254922, Final residual = 0.0254601, No Iterations 59
time step continuity errors : sum local = 0.000116593, global = -1.61712e-05, cumulative = -8.53064e-05
ExecutionTime = 501.499 s  ClockTime = 501 s

Time = 487s

diagonalPBiCGStab:  Solving for Ux, Initial residual = 0.0171679, Final residual = 0.001519, No Iterations 4
diagonalPBiCGStab:  Solving for Uy, Initial residual = 0.0338076, Final residual = 0.0028553, No Iterations 4
diagonalPBiCGStab:  Solving for Uz, Initial residual = 0.0239688, Final residual = 0.00187773, No Iterations 5
diagonalPCG:  Solving for p, Initial residual = 0.243534, Final residual = 0.0238904, No Iterations 512
time step continuity errors : sum local = 0.000110677, global = -1.65149e-06, cumulative = -8.69579e-05
ExecutionTime = 503.453 s  ClockTime = 503 s

Time = 488s

diagonalPBiCGStab:  Solving for Ux, Initial residual = 0.0223127, Final residual = 0.00182752, No Iterations 4
diagonalPBiCGStab:  Solving for Uy, Initial residual = 0.0386499, Final residual = 0.00366604, No Iterations 4
diagonalPBiCGStab:  Solving for Uz, Initial residual = 0.0286744, Final residual = 0.00255125, No Iterations 4
diagonalPCG:  Solving for p, Initial residual = 0.261955, Final residual = 0.0259407, No Iterations 35
time step continuity errors : sum local = 0.000119407, global = -1.17688e-05, cumulative = -9.87267e-05
ExecutionTime = 503.896 s  ClockTime = 504 s

Time = 489s

diagonalPBiCGStab:  Solving for Ux, Initial residual = 0.0222578, Final residual = 0.00118164, No Iterations 5
diagonalPBiCGStab:  Solving for Uy, Initial residual = 0.0340456, Final residual = 0.00271482, No Iterations 4
diagonalPBiCGStab:  Solving for Uz, Initial residual = 0.0240261, Final residual = 0.00205766, No Iterations 4
diagonalPCG:  Solving for p, Initial residual = 0.252181, Final residual = 0.0250708, No Iterations 97
time step continuity errors : sum local = 0.000116779, global = -1.60876e-06, cumulative = -0.000100335
ExecutionTime = 504.549 s  ClockTime = 504 s

Time = 490s

diagonalPBiCGStab:  Solving for Ux, Initial residual = 0.0228003, Final residual = 0.00190653, No Iterations 4
diagonalPBiCGStab:  Solving for Uy, Initial residual = 0.031834, Final residual = 0.00262807, No Iterations 5
diagonalPBiCGStab:  Solving for Uz, Initial residual = 0.024788, Final residual = 0.00246855, No Iterations 5
diagonalPCG:  Solving for p, Initial residual = 0.249086, Final residual = 0.0246397, No Iterations 626
time step continuity errors : sum local = 0.000112561, global = 2.5923e-06, cumulative = -9.77432e-05
ExecutionTime = 506.901 s  ClockTime = 507 s

Time = 491s

diagonalPBiCGStab:  Solving for Ux, Initial residual = 0.013891, Final residual = 0.000922709, No Iterations 5
diagonalPBiCGStab:  Solving for Uy, Initial residual = 0.0344422, Final residual = 0.00311301, No Iterations 4
diagonalPBiCGStab:  Solving for Uz, Initial residual = 0.0257563, Final residual = 0.00243235, No Iterations 4
diagonalPCG:  Solving for p, Initial residual = 0.295498, Final residual = 0.029329, No Iterations 180
time step continuity errors : sum local = 0.000108254, global = 1.0479e-05, cumulative = -8.72642e-05
ExecutionTime = 507.818 s  ClockTime = 507 s

Time = 492s

diagonalPBiCGStab:  Solving for Ux, Initial residual = 0.0138919, Final residual = 0.00103978, No Iterations 5
diagonalPBiCGStab:  Solving for Uy, Initial residual = 0.0317578, Final residual = 0.00281365, No Iterations 4
diagonalPBiCGStab:  Solving for Uz, Initial residual = 0.0240787, Final residual = 0.00236255, No Iterations 4
diagonalPCG:  Solving for p, Initial residual = 0.289959, Final residual = 0.0288784, No Iterations 71
time step continuity errors : sum local = 0.000108187, global = 1.40164e-05, cumulative = -7.32478e-05
ExecutionTime = 508.382 s  ClockTime = 508 s

Time = 493s

diagonalPBiCGStab:  Solving for Ux, Initial residual = 0.013901, Final residual = 0.00133262, No Iterations 4
diagonalPBiCGStab:  Solving for Uy, Initial residual = 0.0326112, Final residual = 0.00275087, No Iterations 4
diagonalPBiCGStab:  Solving for Uz, Initial residual = 0.0235683, Final residual = 0.00225475, No Iterations 4
diagonalPCG:  Solving for p, Initial residual = 0.28344, Final residual = 0.0281754, No Iterations 30
time step continuity errors : sum local = 0.000105326, global = 1.72781e-05, cumulative = -5.59697e-05
ExecutionTime = 508.814 s  ClockTime = 508 s

Time = 494s

diagonalPBiCGStab:  Solving for Ux, Initial residual = 0.013196, Final residual = 0.00131843, No Iterations 4
diagonalPBiCGStab:  Solving for Uy, Initial residual = 0.0313611, Final residual = 0.00262375, No Iterations 6
diagonalPBiCGStab:  Solving for Uz, Initial residual = 0.0232124, Final residual = 0.00204211, No Iterations 4
diagonalPCG:  Solving for p, Initial residual = 0.276206, Final residual = 0.027549, No Iterations 253
time step continuity errors : sum local = 0.000102886, global = 9.99887e-06, cumulative = -4.59708e-05
ExecutionTime = 509.945 s  ClockTime = 510 s

Time = 495s

diagonalPBiCGStab:  Solving for Ux, Initial residual = 0.0165809, Final residual = 0.0014749, No Iterations 4
diagonalPBiCGStab:  Solving for Uy, Initial residual = 0.0309186, Final residual = 0.00281253, No Iterations 5
diagonalPBiCGStab:  Solving for Uz, Initial residual = 0.0249229, Final residual = 0.00233729, No Iterations 5
diagonalPCG:  Solving for p, Initial residual = 0.269842, Final residual = 0.026873, No Iterations 32
time step continuity errors : sum local = 0.000106373, global = 1.22935e-05, cumulative = -3.36773e-05
ExecutionTime = 510.387 s  ClockTime = 510 s

Time = 496s

diagonalPBiCGStab:  Solving for Ux, Initial residual = 0.0160223, Final residual = 0.00143408, No Iterations 4
diagonalPBiCGStab:  Solving for Uy, Initial residual = 0.0293773, Final residual = 0.00222526, No Iterations 4
diagonalPBiCGStab:  Solving for Uz, Initial residual = 0.0237581, Final residual = 0.00210276, No Iterations 4
diagonalPCG:  Solving for p, Initial residual = 0.263545, Final residual = 0.02602, No Iterations 169
time step continuity errors : sum local = 0.000103249, global = 1.50841e-05, cumulative = -1.85932e-05
ExecutionTime = 511.267 s  ClockTime = 511 s

Time = 497s

diagonalPBiCGStab:  Solving for Ux, Initial residual = 0.0129669, Final residual = 0.00121755, No Iterations 4
diagonalPBiCGStab:  Solving for Uy, Initial residual = 0.0301954, Final residual = 0.00199766, No Iterations 5
diagonalPBiCGStab:  Solving for Uz, Initial residual = 0.0253435, Final residual = 0.00212602, No Iterations 4
diagonalPCG:  Solving for p, Initial residual = 0.2573, Final residual = 0.0253915, No Iterations 168
time step continuity errors : sum local = 0.000101056, global = 1.23854e-05, cumulative = -6.20779e-06
ExecutionTime = 512.145 s  ClockTime = 512 s

Time = 498s

diagonalPBiCGStab:  Solving for Ux, Initial residual = 0.0152878, Final residual = 0.00128925, No Iterations 4
diagonalPBiCGStab:  Solving for Uy, Initial residual = 0.0308262, Final residual = 0.00191316, No Iterations 5
diagonalPBiCGStab:  Solving for Uz, Initial residual = 0.024513, Final residual = 0.00216209, No Iterations 4
diagonalPCG:  Solving for p, Initial residual = 0.25956, Final residual = 0.0257684, No Iterations 25
time step continuity errors : sum local = 0.000105227, global = 1.43258e-05, cumulative = 8.11798e-06
ExecutionTime = 512.565 s  ClockTime = 512 s

Time = 499s

diagonalPBiCGStab:  Solving for Ux, Initial residual = 0.0148052, Final residual = 0.000781998, No Iterations 5
diagonalPBiCGStab:  Solving for Uy, Initial residual = 0.0296213, Final residual = 0.00269519, No Iterations 4
diagonalPBiCGStab:  Solving for Uz, Initial residual = 0.0239658, Final residual = 0.00166311, No Iterations 5
diagonalPCG:  Solving for p, Initial residual = 0.254804, Final residual = 0.025171, No Iterations 169
time step continuity errors : sum local = 0.000103045, global = 7.54828e-06, cumulative = 1.56663e-05
ExecutionTime = 513.453 s  ClockTime = 513 s

Time = 500s

diagonalPBiCGStab:  Solving for Ux, Initial residual = 0.014703, Final residual = 0.00114461, No Iterations 4
diagonalPBiCGStab:  Solving for Uy, Initial residual = 0.0295458, Final residual = 0.00265648, No Iterations 4
diagonalPBiCGStab:  Solving for Uz, Initial residual = 0.0251771, Final residual = 0.00129426, No Iterations 6
diagonalPCG:  Solving for p, Initial residual = 0.245179, Final residual = 0.0240895, No Iterations 21
time step continuity errors : sum local = 0.000102076, global = 6.60373e-06, cumulative = 2.227e-05
ExecutionTime = 514.075 s  ClockTime = 514 s

End

Finalising parallel run
