/*---------------------------------------------------------------------------*\
  =========                 |
  \\      /  F ield         | OpenFOAM: The Open Source CFD Toolbox
   \\    /   O peration     | Website:  https://openfoam.org
    \\  /    A nd           | Version:  11
     \\/     M anipulation  |
\*---------------------------------------------------------------------------*/
Build  : 11
Exec   : foamRun
Date   : Nov 01 2024
Time   : 02:14:24
Host   : "skynet-linux"
PID    : 33000
I/O    : uncollated
Case   : /home/humberto/casesXCALibre/BFS_3D_5mm_OF11
nProcs : 1
sigFpe : Enabling floating point exception trapping (FOAM_SIGFPE).
fileModificationChecking : Monitoring run-time modified files using timeStampMaster (fileModificationSkew 10)
allowSystemOperations : Allowing user-supplied system call operations

// * * * * * * * * * * * * * * * * * * * * * * * * * * * * * * * * * * * * * //
Create time

Create mesh for time = 0

Selecting solver incompressibleFluid
Selecting viscosity model constant
Selecting turbulence model type laminar
Selecting laminar stress model Stokes
No MRF models present


SIMPLE: Convergence criteria found
        p: tolerance 1e-07
        U: tolerance 1e-07
        "(k|epsilon|omega|f|v2)": tolerance 1e-07


SIMPLE: Operating solver in steady-state mode with 1 outer corrector
SIMPLE: Operating solver in SIMPLE mode



Starting time loop

Time = 1s

DILUPBiCGStab:  Solving for Ux, Initial residual = 1, Final residual = 0.0711888, No Iterations 3
DILUPBiCGStab:  Solving for Uy, Initial residual = 1, Final residual = 0.0792688, No Iterations 1
DILUPBiCGStab:  Solving for Uz, Initial residual = 1, Final residual = 0.0904606, No Iterations 1
GAMG:  Solving for p, Initial residual = 1, Final residual = 0.0674328, No Iterations 12
time step continuity errors : sum local = 1.90214e-05, global = 1.38809e-06, cumulative = 1.38809e-06
ExecutionTime = 3.01688 s  ClockTime = 3 s

Time = 2s

DILUPBiCGStab:  Solving for Ux, Initial residual = 0.877841, Final residual = 0.038639, No Iterations 2
DILUPBiCGStab:  Solving for Uy, Initial residual = 0.447446, Final residual = 0.0334819, No Iterations 2
DILUPBiCGStab:  Solving for Uz, Initial residual = 0.379716, Final residual = 0.0300448, No Iterations 1
GAMG:  Solving for p, Initial residual = 0.210185, Final residual = 0.0169336, No Iterations 2
time step continuity errors : sum local = 0.00144306, global = -0.000292015, cumulative = -0.000290627
ExecutionTime = 4.06179 s  ClockTime = 4 s

Time = 3s

DILUPBiCGStab:  Solving for Ux, Initial residual = 0.429259, Final residual = 0.0211722, No Iterations 2
DILUPBiCGStab:  Solving for Uy, Initial residual = 0.295771, Final residual = 0.0194059, No Iterations 2
DILUPBiCGStab:  Solving for Uz, Initial residual = 0.316003, Final residual = 0.0247094, No Iterations 1
GAMG:  Solving for p, Initial residual = 0.194557, Final residual = 0.0147029, No Iterations 4
time step continuity errors : sum local = 0.00106106, global = -0.000181983, cumulative = -0.00047261
ExecutionTime = 5.22016 s  ClockTime = 5 s

Time = 4s

DILUPBiCGStab:  Solving for Ux, Initial residual = 0.283083, Final residual = 0.0184765, No Iterations 2
DILUPBiCGStab:  Solving for Uy, Initial residual = 0.420259, Final residual = 0.0299009, No Iterations 1
DILUPBiCGStab:  Solving for Uz, Initial residual = 0.536796, Final residual = 0.0312253, No Iterations 1
GAMG:  Solving for p, Initial residual = 0.326317, Final residual = 0.0241289, No Iterations 4
time step continuity errors : sum local = 0.00093483, global = -0.000142399, cumulative = -0.000615009
ExecutionTime = 6.35831 s  ClockTime = 6 s

Time = 5s

DILUPBiCGStab:  Solving for Ux, Initial residual = 0.569286, Final residual = 0.0353427, No Iterations 2
DILUPBiCGStab:  Solving for Uy, Initial residual = 0.377078, Final residual = 0.0324779, No Iterations 2
DILUPBiCGStab:  Solving for Uz, Initial residual = 0.344956, Final residual = 0.0224959, No Iterations 1
GAMG:  Solving for p, Initial residual = 0.309654, Final residual = 0.0174641, No Iterations 2
time step continuity errors : sum local = 0.00167556, global = 1.24978e-06, cumulative = -0.00061376
ExecutionTime = 7.39625 s  ClockTime = 7 s

Time = 6s

DILUPBiCGStab:  Solving for Ux, Initial residual = 0.566504, Final residual = 0.0427846, No Iterations 2
DILUPBiCGStab:  Solving for Uy, Initial residual = 0.35425, Final residual = 0.022619, No Iterations 2
DILUPBiCGStab:  Solving for Uz, Initial residual = 0.327564, Final residual = 0.026198, No Iterations 1
GAMG:  Solving for p, Initial residual = 0.281025, Final residual = 0.0116736, No Iterations 4
time step continuity errors : sum local = 0.000750718, global = 0.000152691, cumulative = -0.000461069
ExecutionTime = 8.54814 s  ClockTime = 8 s

Time = 7s

DILUPBiCGStab:  Solving for Ux, Initial residual = 0.370765, Final residual = 0.0316459, No Iterations 2
DILUPBiCGStab:  Solving for Uy, Initial residual = 0.40368, Final residual = 0.0244533, No Iterations 2
DILUPBiCGStab:  Solving for Uz, Initial residual = 0.50112, Final residual = 0.0250293, No Iterations 2
GAMG:  Solving for p, Initial residual = 0.45987, Final residual = 0.0341932, No Iterations 3
time step continuity errors : sum local = 0.000816706, global = 0.000111395, cumulative = -0.000349674
ExecutionTime = 9.67376 s  ClockTime = 9 s

Time = 8s

DILUPBiCGStab:  Solving for Ux, Initial residual = 0.630145, Final residual = 0.0333914, No Iterations 2
DILUPBiCGStab:  Solving for Uy, Initial residual = 0.34083, Final residual = 0.0309302, No Iterations 2
DILUPBiCGStab:  Solving for Uz, Initial residual = 0.307794, Final residual = 0.017201, No Iterations 2
GAMG:  Solving for p, Initial residual = 0.324155, Final residual = 0.0241493, No Iterations 2
time step continuity errors : sum local = 0.00127608, global = -0.000146259, cumulative = -0.000495933
ExecutionTime = 10.7341 s  ClockTime = 10 s

Time = 9s

DILUPBiCGStab:  Solving for Ux, Initial residual = 0.619634, Final residual = 0.0308183, No Iterations 2
DILUPBiCGStab:  Solving for Uy, Initial residual = 0.285902, Final residual = 0.0216808, No Iterations 2
DILUPBiCGStab:  Solving for Uz, Initial residual = 0.209019, Final residual = 0.0128078, No Iterations 2
GAMG:  Solving for p, Initial residual = 0.309353, Final residual = 0.00981827, No Iterations 4
time step continuity errors : sum local = 0.000561387, global = -0.000128492, cumulative = -0.000624425
ExecutionTime = 11.9225 s  ClockTime = 12 s

Time = 10s

DILUPBiCGStab:  Solving for Ux, Initial residual = 0.280081, Final residual = 0.0188765, No Iterations 2
DILUPBiCGStab:  Solving for Uy, Initial residual = 0.326603, Final residual = 0.0177629, No Iterations 2
DILUPBiCGStab:  Solving for Uz, Initial residual = 0.40312, Final residual = 0.0204784, No Iterations 2
GAMG:  Solving for p, Initial residual = 0.501667, Final residual = 0.0180242, No Iterations 4
time step continuity errors : sum local = 0.000426995, global = -9.5636e-05, cumulative = -0.000720061
ExecutionTime = 13.1081 s  ClockTime = 13 s

Time = 11s

DILUPBiCGStab:  Solving for Ux, Initial residual = 0.404355, Final residual = 0.019006, No Iterations 2
DILUPBiCGStab:  Solving for Uy, Initial residual = 0.313401, Final residual = 0.027914, No Iterations 2
DILUPBiCGStab:  Solving for Uz, Initial residual = 0.318942, Final residual = 0.0140607, No Iterations 2
GAMG:  Solving for p, Initial residual = 0.285261, Final residual = 0.00947022, No Iterations 3
time step continuity errors : sum local = 0.000505803, global = -4.10501e-05, cumulative = -0.000761111
ExecutionTime = 14.2327 s  ClockTime = 14 s

Time = 12s

DILUPBiCGStab:  Solving for Ux, Initial residual = 0.397054, Final residual = 0.0176497, No Iterations 2
DILUPBiCGStab:  Solving for Uy, Initial residual = 0.245838, Final residual = 0.0205078, No Iterations 2
DILUPBiCGStab:  Solving for Uz, Initial residual = 0.186673, Final residual = 0.011194, No Iterations 2
GAMG:  Solving for p, Initial residual = 0.292815, Final residual = 0.0256433, No Iterations 2
time step continuity errors : sum local = 0.00142772, global = 0.000309137, cumulative = -0.000451974
ExecutionTime = 15.2899 s  ClockTime = 15 s

Time = 13s

DILUPBiCGStab:  Solving for Ux, Initial residual = 0.229224, Final residual = 0.012817, No Iterations 2
DILUPBiCGStab:  Solving for Uy, Initial residual = 0.259661, Final residual = 0.0166239, No Iterations 2
DILUPBiCGStab:  Solving for Uz, Initial residual = 0.269854, Final residual = 0.0153083, No Iterations 2
GAMG:  Solving for p, Initial residual = 0.345076, Final residual = 0.0242089, No Iterations 4
time step continuity errors : sum local = 0.000675624, global = 7.26482e-05, cumulative = -0.000379326
ExecutionTime = 16.482 s  ClockTime = 16 s

Time = 14s

DILUPBiCGStab:  Solving for Ux, Initial residual = 0.401696, Final residual = 0.019922, No Iterations 2
DILUPBiCGStab:  Solving for Uy, Initial residual = 0.353664, Final residual = 0.0333326, No Iterations 2
DILUPBiCGStab:  Solving for Uz, Initial residual = 0.381653, Final residual = 0.0297675, No Iterations 2
GAMG:  Solving for p, Initial residual = 0.296667, Final residual = 0.0180263, No Iterations 3
time step continuity errors : sum local = 0.000705605, global = 7.93776e-05, cumulative = -0.000299949
ExecutionTime = 17.6047 s  ClockTime = 17 s

Time = 15s

DILUPBiCGStab:  Solving for Ux, Initial residual = 0.631467, Final residual = 0.028524, No Iterations 2
DILUPBiCGStab:  Solving for Uy, Initial residual = 0.279443, Final residual = 0.00827614, No Iterations 2
DILUPBiCGStab:  Solving for Uz, Initial residual = 0.218648, Final residual = 0.0148212, No Iterations 2
GAMG:  Solving for p, Initial residual = 0.308326, Final residual = 0.0138465, No Iterations 3
time step continuity errors : sum local = 0.000668847, global = 4.18853e-05, cumulative = -0.000258063
ExecutionTime = 18.7618 s  ClockTime = 18 s

Time = 16s

DILUPBiCGStab:  Solving for Ux, Initial residual = 0.558081, Final residual = 0.0332625, No Iterations 2
DILUPBiCGStab:  Solving for Uy, Initial residual = 0.235253, Final residual = 0.0202938, No Iterations 2
DILUPBiCGStab:  Solving for Uz, Initial residual = 0.265283, Final residual = 0.0255654, No Iterations 2
GAMG:  Solving for p, Initial residual = 0.399748, Final residual = 0.028835, No Iterations 3
time step continuity errors : sum local = 0.000927741, global = -0.000134194, cumulative = -0.000392258
ExecutionTime = 19.8819 s  ClockTime = 20 s

Time = 17s

DILUPBiCGStab:  Solving for Ux, Initial residual = 0.266665, Final residual = 0.0157899, No Iterations 2
DILUPBiCGStab:  Solving for Uy, Initial residual = 0.292873, Final residual = 0.0279561, No Iterations 2
DILUPBiCGStab:  Solving for Uz, Initial residual = 0.356959, Final residual = 0.0208538, No Iterations 2
GAMG:  Solving for p, Initial residual = 0.351242, Final residual = 0.0290196, No Iterations 3
time step continuity errors : sum local = 0.000838074, global = -0.000142257, cumulative = -0.000534515
ExecutionTime = 21.0388 s  ClockTime = 21 s

Time = 18s

DILUPBiCGStab:  Solving for Ux, Initial residual = 0.314885, Final residual = 0.0145636, No Iterations 2
DILUPBiCGStab:  Solving for Uy, Initial residual = 0.281908, Final residual = 0.0245899, No Iterations 2
DILUPBiCGStab:  Solving for Uz, Initial residual = 0.24089, Final residual = 0.015586, No Iterations 2
GAMG:  Solving for p, Initial residual = 0.313246, Final residual = 0.0148079, No Iterations 3
time step continuity errors : sum local = 0.00063376, global = -3.27635e-05, cumulative = -0.000567279
ExecutionTime = 22.1707 s  ClockTime = 22 s

Time = 19s

DILUPBiCGStab:  Solving for Ux, Initial residual = 0.247252, Final residual = 0.0133212, No Iterations 2
DILUPBiCGStab:  Solving for Uy, Initial residual = 0.220226, Final residual = 0.0203337, No Iterations 2
DILUPBiCGStab:  Solving for Uz, Initial residual = 0.20544, Final residual = 0.00813277, No Iterations 2
GAMG:  Solving for p, Initial residual = 0.327946, Final residual = 0.0245839, No Iterations 3
time step continuity errors : sum local = 0.00084228, global = -4.64813e-05, cumulative = -0.00061376
ExecutionTime = 23.3278 s  ClockTime = 23 s

Time = 20s

DILUPBiCGStab:  Solving for Ux, Initial residual = 0.212296, Final residual = 0.0112554, No Iterations 2
DILUPBiCGStab:  Solving for Uy, Initial residual = 0.271235, Final residual = 0.0207593, No Iterations 2
DILUPBiCGStab:  Solving for Uz, Initial residual = 0.297558, Final residual = 0.0181099, No Iterations 2
GAMG:  Solving for p, Initial residual = 0.502648, Final residual = 0.0400586, No Iterations 3
time step continuity errors : sum local = 0.000679696, global = 0.00011703, cumulative = -0.00049673
ExecutionTime = 24.454 s  ClockTime = 24 s

Time = 21s

DILUPBiCGStab:  Solving for Ux, Initial residual = 0.324333, Final residual = 0.0157012, No Iterations 2
DILUPBiCGStab:  Solving for Uy, Initial residual = 0.274718, Final residual = 0.0237408, No Iterations 2
DILUPBiCGStab:  Solving for Uz, Initial residual = 0.243793, Final residual = 0.0173667, No Iterations 2
GAMG:  Solving for p, Initial residual = 0.332589, Final residual = 0.0236965, No Iterations 3
time step continuity errors : sum local = 0.000635804, global = 5.40451e-05, cumulative = -0.000442685
ExecutionTime = 25.5856 s  ClockTime = 25 s

Time = 22s

DILUPBiCGStab:  Solving for Ux, Initial residual = 0.507039, Final residual = 0.022612, No Iterations 2
DILUPBiCGStab:  Solving for Uy, Initial residual = 0.214591, Final residual = 0.0180538, No Iterations 2
DILUPBiCGStab:  Solving for Uz, Initial residual = 0.216573, Final residual = 0.014067, No Iterations 2
GAMG:  Solving for p, Initial residual = 0.321261, Final residual = 0.0194782, No Iterations 3
time step continuity errors : sum local = 0.000626465, global = -0.000113773, cumulative = -0.000556458
ExecutionTime = 26.709 s  ClockTime = 26 s

Time = 23s

DILUPBiCGStab:  Solving for Ux, Initial residual = 0.405755, Final residual = 0.0201458, No Iterations 2
DILUPBiCGStab:  Solving for Uy, Initial residual = 0.189149, Final residual = 0.0132632, No Iterations 2
DILUPBiCGStab:  Solving for Uz, Initial residual = 0.23666, Final residual = 0.0132301, No Iterations 2
GAMG:  Solving for p, Initial residual = 0.422623, Final residual = 0.0214766, No Iterations 3
time step continuity errors : sum local = 0.00048094, global = -8.75733e-05, cumulative = -0.000644031
ExecutionTime = 27.8328 s  ClockTime = 27 s

Time = 24s

DILUPBiCGStab:  Solving for Ux, Initial residual = 0.23564, Final residual = 0.0136552, No Iterations 2
DILUPBiCGStab:  Solving for Uy, Initial residual = 0.250388, Final residual = 0.0218729, No Iterations 2
DILUPBiCGStab:  Solving for Uz, Initial residual = 0.259431, Final residual = 0.0161623, No Iterations 2
GAMG:  Solving for p, Initial residual = 0.445001, Final residual = 0.0363237, No Iterations 3
time step continuity errors : sum local = 0.000683365, global = -0.000105166, cumulative = -0.000749197
ExecutionTime = 28.9519 s  ClockTime = 29 s

Time = 25s

DILUPBiCGStab:  Solving for Ux, Initial residual = 0.225011, Final residual = 0.0107318, No Iterations 2
DILUPBiCGStab:  Solving for Uy, Initial residual = 0.224009, Final residual = 0.017114, No Iterations 2
DILUPBiCGStab:  Solving for Uz, Initial residual = 0.218527, Final residual = 0.0149136, No Iterations 2
GAMG:  Solving for p, Initial residual = 0.344618, Final residual = 0.0290409, No Iterations 3
time step continuity errors : sum local = 0.000817214, global = 6.27195e-05, cumulative = -0.000686478
ExecutionTime = 30.0752 s  ClockTime = 30 s

Time = 26s

DILUPBiCGStab:  Solving for Ux, Initial residual = 0.227641, Final residual = 0.0160691, No Iterations 2
DILUPBiCGStab:  Solving for Uy, Initial residual = 0.18106, Final residual = 0.0106634, No Iterations 2
DILUPBiCGStab:  Solving for Uz, Initial residual = 0.196958, Final residual = 0.00212001, No Iterations 3
GAMG:  Solving for p, Initial residual = 0.369241, Final residual = 0.014291, No Iterations 3
time step continuity errors : sum local = 0.000345664, global = 5.42636e-05, cumulative = -0.000632214
ExecutionTime = 31.2584 s  ClockTime = 31 s

Time = 27s

DILUPBiCGStab:  Solving for Ux, Initial residual = 0.231041, Final residual = 0.0114839, No Iterations 2
DILUPBiCGStab:  Solving for Uy, Initial residual = 0.239688, Final residual = 0.0200074, No Iterations 2
DILUPBiCGStab:  Solving for Uz, Initial residual = 0.223667, Final residual = 0.0127439, No Iterations 2
GAMG:  Solving for p, Initial residual = 0.642463, Final residual = 0.0383866, No Iterations 3
time step continuity errors : sum local = 0.000435189, global = 8.64842e-05, cumulative = -0.00054573
ExecutionTime = 32.383 s  ClockTime = 32 s

Time = 28s

DILUPBiCGStab:  Solving for Ux, Initial residual = 0.333176, Final residual = 0.0164318, No Iterations 2
DILUPBiCGStab:  Solving for Uy, Initial residual = 0.226458, Final residual = 0.0171655, No Iterations 2
DILUPBiCGStab:  Solving for Uz, Initial residual = 0.222635, Final residual = 0.0142072, No Iterations 2
GAMG:  Solving for p, Initial residual = 0.32291, Final residual = 0.0212777, No Iterations 3
time step continuity errors : sum local = 0.000515729, global = 4.36066e-05, cumulative = -0.000502123
ExecutionTime = 33.5102 s  ClockTime = 33 s

Time = 29s

DILUPBiCGStab:  Solving for Ux, Initial residual = 0.506673, Final residual = 0.0244541, No Iterations 2
DILUPBiCGStab:  Solving for Uy, Initial residual = 0.166657, Final residual = 0.00650276, No Iterations 2
DILUPBiCGStab:  Solving for Uz, Initial residual = 0.196295, Final residual = 0.0104458, No Iterations 2
GAMG:  Solving for p, Initial residual = 0.306267, Final residual = 0.0119449, No Iterations 3
time step continuity errors : sum local = 0.000340703, global = -5.92832e-05, cumulative = -0.000561406
ExecutionTime = 34.6702 s  ClockTime = 34 s

Time = 30s

DILUPBiCGStab:  Solving for Ux, Initial residual = 0.392654, Final residual = 0.0190434, No Iterations 2
DILUPBiCGStab:  Solving for Uy, Initial residual = 0.180581, Final residual = 0.0136518, No Iterations 2
DILUPBiCGStab:  Solving for Uz, Initial residual = 0.195784, Final residual = 0.0125197, No Iterations 2
GAMG:  Solving for p, Initial residual = 0.41219, Final residual = 0.021166, No Iterations 3
time step continuity errors : sum local = 0.000406625, global = -8.64383e-05, cumulative = -0.000647845
ExecutionTime = 35.7909 s  ClockTime = 35 s

Time = 31s

DILUPBiCGStab:  Solving for Ux, Initial residual = 0.212468, Final residual = 0.0121854, No Iterations 2
DILUPBiCGStab:  Solving for Uy, Initial residual = 0.207975, Final residual = 0.0158502, No Iterations 2
DILUPBiCGStab:  Solving for Uz, Initial residual = 0.223124, Final residual = 0.0188483, No Iterations 2
GAMG:  Solving for p, Initial residual = 0.429555, Final residual = 0.0363152, No Iterations 3
time step continuity errors : sum local = 0.000606476, global = -6.81179e-05, cumulative = -0.000715963
ExecutionTime = 36.9194 s  ClockTime = 37 s

Time = 32s

DILUPBiCGStab:  Solving for Ux, Initial residual = 0.228498, Final residual = 0.0109584, No Iterations 2
DILUPBiCGStab:  Solving for Uy, Initial residual = 0.153619, Final residual = 0.010476, No Iterations 2
DILUPBiCGStab:  Solving for Uz, Initial residual = 0.176253, Final residual = 0.0105133, No Iterations 2
GAMG:  Solving for p, Initial residual = 0.326292, Final residual = 0.021076, No Iterations 3
time step continuity errors : sum local = 0.000504065, global = 7.79385e-05, cumulative = -0.000638024
ExecutionTime = 38.0402 s  ClockTime = 38 s

Time = 33s

DILUPBiCGStab:  Solving for Ux, Initial residual = 0.221083, Final residual = 0.0107059, No Iterations 2
DILUPBiCGStab:  Solving for Uy, Initial residual = 0.153781, Final residual = 0.0126944, No Iterations 2
DILUPBiCGStab:  Solving for Uz, Initial residual = 0.152643, Final residual = 0.00954125, No Iterations 2
GAMG:  Solving for p, Initial residual = 0.365312, Final residual = 0.0145732, No Iterations 3
time step continuity errors : sum local = 0.000278078, global = 5.15405e-05, cumulative = -0.000586484
ExecutionTime = 39.1642 s  ClockTime = 39 s

Time = 34s

DILUPBiCGStab:  Solving for Ux, Initial residual = 0.230288, Final residual = 0.0114047, No Iterations 2
DILUPBiCGStab:  Solving for Uy, Initial residual = 0.199014, Final residual = 0.00593436, No Iterations 2
DILUPBiCGStab:  Solving for Uz, Initial residual = 0.191519, Final residual = 0.0156401, No Iterations 2
GAMG:  Solving for p, Initial residual = 0.459307, Final residual = 0.0293933, No Iterations 3
time step continuity errors : sum local = 0.000390088, global = 6.49455e-05, cumulative = -0.000521538
ExecutionTime = 40.3124 s  ClockTime = 40 s

Time = 35s

DILUPBiCGStab:  Solving for Ux, Initial residual = 0.339281, Final residual = 0.0157095, No Iterations 2
DILUPBiCGStab:  Solving for Uy, Initial residual = 0.141017, Final residual = 0.0100296, No Iterations 2
DILUPBiCGStab:  Solving for Uz, Initial residual = 0.160821, Final residual = 0.0106931, No Iterations 2
GAMG:  Solving for p, Initial residual = 0.284467, Final residual = 0.0237105, No Iterations 3
time step continuity errors : sum local = 0.000520609, global = 7.81365e-06, cumulative = -0.000513724
ExecutionTime = 41.438 s  ClockTime = 41 s

Time = 36s

DILUPBiCGStab:  Solving for Ux, Initial residual = 0.426949, Final residual = 0.0218139, No Iterations 2
DILUPBiCGStab:  Solving for Uy, Initial residual = 0.142499, Final residual = 0.0107111, No Iterations 2
DILUPBiCGStab:  Solving for Uz, Initial residual = 0.157457, Final residual = 0.00982994, No Iterations 2
GAMG:  Solving for p, Initial residual = 0.289447, Final residual = 0.00920584, No Iterations 3
time step continuity errors : sum local = 0.000206976, global = -3.58352e-05, cumulative = -0.00054956
ExecutionTime = 42.5611 s  ClockTime = 42 s

Time = 37s

DILUPBiCGStab:  Solving for Ux, Initial residual = 0.291507, Final residual = 0.0144837, No Iterations 2
DILUPBiCGStab:  Solving for Uy, Initial residual = 0.15822, Final residual = 0.0131758, No Iterations 2
DILUPBiCGStab:  Solving for Uz, Initial residual = 0.160988, Final residual = 0.00667882, No Iterations 2
GAMG:  Solving for p, Initial residual = 0.536401, Final residual = 0.0296798, No Iterations 3
time step continuity errors : sum local = 0.00032841, global = -6.28926e-05, cumulative = -0.000612452
ExecutionTime = 43.7182 s  ClockTime = 43 s

Time = 38s

DILUPBiCGStab:  Solving for Ux, Initial residual = 0.18083, Final residual = 0.00930645, No Iterations 2
DILUPBiCGStab:  Solving for Uy, Initial residual = 0.128512, Final residual = 0.00959691, No Iterations 2
DILUPBiCGStab:  Solving for Uz, Initial residual = 0.148518, Final residual = 0.0107967, No Iterations 2
GAMG:  Solving for p, Initial residual = 0.374998, Final residual = 0.029391, No Iterations 3
time step continuity errors : sum local = 0.000443626, global = -4.36428e-05, cumulative = -0.000656095
ExecutionTime = 44.8388 s  ClockTime = 44 s

Time = 39s

DILUPBiCGStab:  Solving for Ux, Initial residual = 0.204931, Final residual = 0.0101109, No Iterations 2
DILUPBiCGStab:  Solving for Uy, Initial residual = 0.116383, Final residual = 0.0106112, No Iterations 2
DILUPBiCGStab:  Solving for Uz, Initial residual = 0.132656, Final residual = 0.00891874, No Iterations 2
GAMG:  Solving for p, Initial residual = 0.316437, Final residual = 0.0112326, No Iterations 3
time step continuity errors : sum local = 0.000203186, global = 3.96134e-05, cumulative = -0.000616482
ExecutionTime = 45.9966 s  ClockTime = 46 s

Time = 40s

DILUPBiCGStab:  Solving for Ux, Initial residual = 0.212252, Final residual = 0.0112025, No Iterations 2
DILUPBiCGStab:  Solving for Uy, Initial residual = 0.128583, Final residual = 0.00963803, No Iterations 2
DILUPBiCGStab:  Solving for Uz, Initial residual = 0.119045, Final residual = 0.0100349, No Iterations 2
GAMG:  Solving for p, Initial residual = 0.447696, Final residual = 0.0190525, No Iterations 3
time step continuity errors : sum local = 0.000220756, global = 4.40797e-05, cumulative = -0.000572402
ExecutionTime = 47.1185 s  ClockTime = 47 s

Time = 41s

DILUPBiCGStab:  Solving for Ux, Initial residual = 0.22709, Final residual = 0.0105038, No Iterations 2
DILUPBiCGStab:  Solving for Uy, Initial residual = 0.127322, Final residual = 0.00990892, No Iterations 2
DILUPBiCGStab:  Solving for Uz, Initial residual = 0.133299, Final residual = 0.00928822, No Iterations 2
GAMG:  Solving for p, Initial residual = 0.332317, Final residual = 0.0262131, No Iterations 3
time step continuity errors : sum local = 0.000374117, global = 5.12475e-05, cumulative = -0.000521154
ExecutionTime = 48.2422 s  ClockTime = 48 s

Time = 42s

DILUPBiCGStab:  Solving for Ux, Initial residual = 0.330645, Final residual = 0.0161614, No Iterations 2
DILUPBiCGStab:  Solving for Uy, Initial residual = 0.106163, Final residual = 0.00750785, No Iterations 2
DILUPBiCGStab:  Solving for Uz, Initial residual = 0.122719, Final residual = 0.00701993, No Iterations 2
GAMG:  Solving for p, Initial residual = 0.244581, Final residual = 0.0125414, No Iterations 3
time step continuity errors : sum local = 0.000266756, global = -4.88351e-05, cumulative = -0.000569989
ExecutionTime = 49.3667 s  ClockTime = 49 s

Time = 43s

DILUPBiCGStab:  Solving for Ux, Initial residual = 0.341189, Final residual = 0.0172347, No Iterations 2
DILUPBiCGStab:  Solving for Uy, Initial residual = 0.11581, Final residual = 0.00949616, No Iterations 2
DILUPBiCGStab:  Solving for Uz, Initial residual = 0.113801, Final residual = 0.00991146, No Iterations 2
GAMG:  Solving for p, Initial residual = 0.244641, Final residual = 0.00828756, No Iterations 3
time step continuity errors : sum local = 0.000185881, global = -3.29577e-05, cumulative = -0.000602947
ExecutionTime = 50.4938 s  ClockTime = 50 s

Time = 44s

DILUPBiCGStab:  Solving for Ux, Initial residual = 0.193094, Final residual = 0.0102663, No Iterations 2
DILUPBiCGStab:  Solving for Uy, Initial residual = 0.121086, Final residual = 0.00924361, No Iterations 2
DILUPBiCGStab:  Solving for Uz, Initial residual = 0.124097, Final residual = 0.00921747, No Iterations 2
GAMG:  Solving for p, Initial residual = 0.601203, Final residual = 0.035785, No Iterations 3
time step continuity errors : sum local = 0.000298003, global = -4.74635e-05, cumulative = -0.000650411
ExecutionTime = 51.6185 s  ClockTime = 51 s

Time = 45s

DILUPBiCGStab:  Solving for Ux, Initial residual = 0.153507, Final residual = 0.00811882, No Iterations 2
DILUPBiCGStab:  Solving for Uy, Initial residual = 0.0946436, Final residual = 0.00638874, No Iterations 2
DILUPBiCGStab:  Solving for Uz, Initial residual = 0.109561, Final residual = 0.00742353, No Iterations 2
GAMG:  Solving for p, Initial residual = 0.322867, Final residual = 0.0220338, No Iterations 3
time step continuity errors : sum local = 0.000341684, global = -1.51524e-05, cumulative = -0.000665563
ExecutionTime = 52.7462 s  ClockTime = 52 s

Time = 46s

DILUPBiCGStab:  Solving for Ux, Initial residual = 0.171943, Final residual = 0.00859425, No Iterations 2
DILUPBiCGStab:  Solving for Uy, Initial residual = 0.0965688, Final residual = 0.00753259, No Iterations 2
DILUPBiCGStab:  Solving for Uz, Initial residual = 0.0976372, Final residual = 0.00764418, No Iterations 2
GAMG:  Solving for p, Initial residual = 0.327565, Final residual = 0.0095655, No Iterations 3
time step continuity errors : sum local = 0.000141404, global = 2.53417e-05, cumulative = -0.000640221
ExecutionTime = 53.8692 s  ClockTime = 54 s

Time = 47s

DILUPBiCGStab:  Solving for Ux, Initial residual = 0.170149, Final residual = 0.00849292, No Iterations 2
DILUPBiCGStab:  Solving for Uy, Initial residual = 0.098195, Final residual = 0.0074959, No Iterations 2
DILUPBiCGStab:  Solving for Uz, Initial residual = 0.0934227, Final residual = 0.0068034, No Iterations 2
GAMG:  Solving for p, Initial residual = 0.597459, Final residual = 0.0330613, No Iterations 3
time step continuity errors : sum local = 0.000239819, global = 4.79827e-05, cumulative = -0.000592239
ExecutionTime = 54.9968 s  ClockTime = 55 s

Time = 48s

DILUPBiCGStab:  Solving for Ux, Initial residual = 0.180806, Final residual = 0.00875683, No Iterations 2
DILUPBiCGStab:  Solving for Uy, Initial residual = 0.0845319, Final residual = 0.00598394, No Iterations 2
DILUPBiCGStab:  Solving for Uz, Initial residual = 0.0906372, Final residual = 0.00666322, No Iterations 2
GAMG:  Solving for p, Initial residual = 0.261237, Final residual = 0.0176143, No Iterations 3
time step continuity errors : sum local = 0.000268173, global = 2.85404e-05, cumulative = -0.000563698
ExecutionTime = 56.1173 s  ClockTime = 56 s

Time = 49s

DILUPBiCGStab:  Solving for Ux, Initial residual = 0.220012, Final residual = 0.0103247, No Iterations 2
DILUPBiCGStab:  Solving for Uy, Initial residual = 0.0865159, Final residual = 0.00641016, No Iterations 2
DILUPBiCGStab:  Solving for Uz, Initial residual = 0.0866741, Final residual = 0.00574365, No Iterations 2
GAMG:  Solving for p, Initial residual = 0.216476, Final residual = 0.00702464, No Iterations 3
time step continuity errors : sum local = 0.000141011, global = -2.77925e-05, cumulative = -0.000591491
ExecutionTime = 57.2459 s  ClockTime = 57 s

Time = 50s

DILUPBiCGStab:  Solving for Ux, Initial residual = 0.191051, Final residual = 0.00907181, No Iterations 2
DILUPBiCGStab:  Solving for Uy, Initial residual = 0.0886568, Final residual = 0.00649328, No Iterations 2
DILUPBiCGStab:  Solving for Uz, Initial residual = 0.0826081, Final residual = 0.0059303, No Iterations 2
GAMG:  Solving for p, Initial residual = 0.250085, Final residual = 0.0102709, No Iterations 3
time step continuity errors : sum local = 0.000188555, global = -4.34413e-05, cumulative = -0.000634932
ExecutionTime = 58.3691 s  ClockTime = 58 s

Time = 51s

DILUPBiCGStab:  Solving for Ux, Initial residual = 0.101775, Final residual = 0.0057456, No Iterations 2
DILUPBiCGStab:  Solving for Uy, Initial residual = 0.0791794, Final residual = 0.00546446, No Iterations 2
DILUPBiCGStab:  Solving for Uz, Initial residual = 0.0808615, Final residual = 0.00563962, No Iterations 2
GAMG:  Solving for p, Initial residual = 0.579755, Final residual = 0.0365707, No Iterations 3
time step continuity errors : sum local = 0.000259566, global = -4.33464e-05, cumulative = -0.000678279
ExecutionTime = 59.4965 s  ClockTime = 59 s

Time = 52s

DILUPBiCGStab:  Solving for Ux, Initial residual = 0.0933662, Final residual = 0.00514694, No Iterations 2
DILUPBiCGStab:  Solving for Uy, Initial residual = 0.0746235, Final residual = 0.00534506, No Iterations 2
DILUPBiCGStab:  Solving for Uz, Initial residual = 0.0790904, Final residual = 0.00540247, No Iterations 2
GAMG:  Solving for p, Initial residual = 0.303338, Final residual = 0.0160982, No Iterations 3
time step continuity errors : sum local = 0.000213583, global = 2.37608e-06, cumulative = -0.000675902
ExecutionTime = 60.6213 s  ClockTime = 60 s

Time = 53s

DILUPBiCGStab:  Solving for Ux, Initial residual = 0.13134, Final residual = 0.00625375, No Iterations 2
DILUPBiCGStab:  Solving for Uy, Initial residual = 0.0760173, Final residual = 0.0054393, No Iterations 2
DILUPBiCGStab:  Solving for Uz, Initial residual = 0.0719808, Final residual = 0.00488593, No Iterations 2
GAMG:  Solving for p, Initial residual = 0.299877, Final residual = 0.00899318, No Iterations 3
time step continuity errors : sum local = 0.000123033, global = 2.80702e-05, cumulative = -0.000647832
ExecutionTime = 61.7493 s  ClockTime = 61 s

Time = 54s

DILUPBiCGStab:  Solving for Ux, Initial residual = 0.111937, Final residual = 0.00562061, No Iterations 2
DILUPBiCGStab:  Solving for Uy, Initial residual = 0.0665518, Final residual = 0.00466537, No Iterations 2
DILUPBiCGStab:  Solving for Uz, Initial residual = 0.0619863, Final residual = 0.00421205, No Iterations 2
GAMG:  Solving for p, Initial residual = 0.451513, Final residual = 0.0244934, No Iterations 3
time step continuity errors : sum local = 0.000189454, global = 3.73851e-05, cumulative = -0.000610447
ExecutionTime = 62.8728 s  ClockTime = 63 s

Time = 55s

DILUPBiCGStab:  Solving for Ux, Initial residual = 0.094498, Final residual = 0.00518573, No Iterations 2
DILUPBiCGStab:  Solving for Uy, Initial residual = 0.0695991, Final residual = 0.00487979, No Iterations 2
DILUPBiCGStab:  Solving for Uz, Initial residual = 0.0659468, Final residual = 0.00436919, No Iterations 2
GAMG:  Solving for p, Initial residual = 0.265631, Final residual = 0.0132506, No Iterations 3
time step continuity errors : sum local = 0.00014929, global = 1.9618e-05, cumulative = -0.000590829
ExecutionTime = 63.9992 s  ClockTime = 64 s

Time = 56s

DILUPBiCGStab:  Solving for Ux, Initial residual = 0.143412, Final residual = 0.00677479, No Iterations 2
DILUPBiCGStab:  Solving for Uy, Initial residual = 0.0719178, Final residual = 0.00516618, No Iterations 2
DILUPBiCGStab:  Solving for Uz, Initial residual = 0.065149, Final residual = 0.00437308, No Iterations 2
GAMG:  Solving for p, Initial residual = 0.206324, Final residual = 0.006552, No Iterations 3
time step continuity errors : sum local = 0.000110767, global = -2.26791e-05, cumulative = -0.000613508
ExecutionTime = 65.1211 s  ClockTime = 65 s

Time = 57s

DILUPBiCGStab:  Solving for Ux, Initial residual = 0.117178, Final residual = 0.00553749, No Iterations 2
DILUPBiCGStab:  Solving for Uy, Initial residual = 0.0561051, Final residual = 0.00380949, No Iterations 2
DILUPBiCGStab:  Solving for Uz, Initial residual = 0.0549065, Final residual = 0.00375814, No Iterations 2
GAMG:  Solving for p, Initial residual = 0.250643, Final residual = 0.0111671, No Iterations 3
time step continuity errors : sum local = 0.000148715, global = -3.30979e-05, cumulative = -0.000646606
ExecutionTime = 66.2439 s  ClockTime = 66 s

Time = 58s

DILUPBiCGStab:  Solving for Ux, Initial residual = 0.050324, Final residual = 0.00316795, No Iterations 2
DILUPBiCGStab:  Solving for Uy, Initial residual = 0.0549472, Final residual = 0.0036424, No Iterations 2
DILUPBiCGStab:  Solving for Uz, Initial residual = 0.057601, Final residual = 0.00389046, No Iterations 2
GAMG:  Solving for p, Initial residual = 0.49765, Final residual = 0.0259484, No Iterations 3
time step continuity errors : sum local = 0.000146428, global = -2.19715e-05, cumulative = -0.000668578
ExecutionTime = 67.364 s  ClockTime = 67 s

Time = 59s

DILUPBiCGStab:  Solving for Ux, Initial residual = 0.0761754, Final residual = 0.00393776, No Iterations 2
DILUPBiCGStab:  Solving for Uy, Initial residual = 0.0595844, Final residual = 0.00421192, No Iterations 2
DILUPBiCGStab:  Solving for Uz, Initial residual = 0.0579649, Final residual = 0.00393719, No Iterations 2
GAMG:  Solving for p, Initial residual = 0.277079, Final residual = 0.0259527, No Iterations 2
time step continuity errors : sum local = 0.000285103, global = -2.47328e-05, cumulative = -0.00069331
ExecutionTime = 68.4252 s  ClockTime = 68 s

Time = 60s

DILUPBiCGStab:  Solving for Ux, Initial residual = 0.0867915, Final residual = 0.00413404, No Iterations 2
DILUPBiCGStab:  Solving for Uy, Initial residual = 0.0488696, Final residual = 0.00332204, No Iterations 2
DILUPBiCGStab:  Solving for Uz, Initial residual = 0.0449451, Final residual = 0.00296643, No Iterations 2
GAMG:  Solving for p, Initial residual = 0.296561, Final residual = 0.011062, No Iterations 3
time step continuity errors : sum local = 0.000110934, global = 2.65972e-05, cumulative = -0.000666713
ExecutionTime = 69.5455 s  ClockTime = 69 s

Time = 61s

DILUPBiCGStab:  Solving for Ux, Initial residual = 0.0629706, Final residual = 0.00346297, No Iterations 2
DILUPBiCGStab:  Solving for Uy, Initial residual = 0.0515963, Final residual = 0.00353512, No Iterations 2
DILUPBiCGStab:  Solving for Uz, Initial residual = 0.0450185, Final residual = 0.00296705, No Iterations 2
GAMG:  Solving for p, Initial residual = 0.412159, Final residual = 0.0214564, No Iterations 3
time step continuity errors : sum local = 0.000124996, global = 2.63098e-05, cumulative = -0.000640403
ExecutionTime = 70.6708 s  ClockTime = 70 s

Time = 62s

DILUPBiCGStab:  Solving for Ux, Initial residual = 0.0703719, Final residual = 0.00374097, No Iterations 2
DILUPBiCGStab:  Solving for Uy, Initial residual = 0.0569754, Final residual = 0.00391289, No Iterations 2
DILUPBiCGStab:  Solving for Uz, Initial residual = 0.0493107, Final residual = 0.00326011, No Iterations 2
GAMG:  Solving for p, Initial residual = 0.248766, Final residual = 0.0115137, No Iterations 3
time step continuity errors : sum local = 0.000111922, global = -1.39336e-05, cumulative = -0.000654337
ExecutionTime = 71.7935 s  ClockTime = 71 s

Time = 63s

DILUPBiCGStab:  Solving for Ux, Initial residual = 0.1072, Final residual = 0.00488467, No Iterations 2
DILUPBiCGStab:  Solving for Uy, Initial residual = 0.0530392, Final residual = 0.00358004, No Iterations 2
DILUPBiCGStab:  Solving for Uz, Initial residual = 0.0463632, Final residual = 0.00310603, No Iterations 2
GAMG:  Solving for p, Initial residual = 0.221253, Final residual = 0.0199222, No Iterations 2
time step continuity errors : sum local = 0.000256744, global = 2.94381e-05, cumulative = -0.000624899
ExecutionTime = 72.8557 s  ClockTime = 73 s

Time = 64s

DILUPBiCGStab:  Solving for Ux, Initial residual = 0.0825909, Final residual = 0.00398238, No Iterations 2
DILUPBiCGStab:  Solving for Uy, Initial residual = 0.0461882, Final residual = 0.00298828, No Iterations 2
DILUPBiCGStab:  Solving for Uz, Initial residual = 0.0413786, Final residual = 0.00269359, No Iterations 2
GAMG:  Solving for p, Initial residual = 0.245688, Final residual = 0.0104869, No Iterations 3
time step continuity errors : sum local = 0.000112227, global = -2.65525e-05, cumulative = -0.000651452
ExecutionTime = 73.9786 s  ClockTime = 74 s

Time = 65s

DILUPBiCGStab:  Solving for Ux, Initial residual = 0.035563, Final residual = 0.0023038, No Iterations 2
DILUPBiCGStab:  Solving for Uy, Initial residual = 0.0472678, Final residual = 0.00310163, No Iterations 2
DILUPBiCGStab:  Solving for Uz, Initial residual = 0.0424386, Final residual = 0.00280389, No Iterations 2
GAMG:  Solving for p, Initial residual = 0.382225, Final residual = 0.0178173, No Iterations 3
time step continuity errors : sum local = 0.000105337, global = -2.21133e-05, cumulative = -0.000673565
ExecutionTime = 75.1041 s  ClockTime = 75 s

Time = 66s

DILUPBiCGStab:  Solving for Ux, Initial residual = 0.0389177, Final residual = 0.00230281, No Iterations 2
DILUPBiCGStab:  Solving for Uy, Initial residual = 0.0451252, Final residual = 0.00302502, No Iterations 2
DILUPBiCGStab:  Solving for Uz, Initial residual = 0.0393543, Final residual = 0.0025792, No Iterations 2
GAMG:  Solving for p, Initial residual = 0.366185, Final residual = 0.0335159, No Iterations 2
time step continuity errors : sum local = 0.000218711, global = -6.05417e-06, cumulative = -0.000679619
ExecutionTime = 76.1616 s  ClockTime = 76 s

Time = 67s

DILUPBiCGStab:  Solving for Ux, Initial residual = 0.0455844, Final residual = 0.00243675, No Iterations 2
DILUPBiCGStab:  Solving for Uy, Initial residual = 0.0413191, Final residual = 0.00274226, No Iterations 2
DILUPBiCGStab:  Solving for Uz, Initial residual = 0.0338026, Final residual = 0.00218559, No Iterations 2
GAMG:  Solving for p, Initial residual = 0.3647, Final residual = 0.034773, No Iterations 2
time step continuity errors : sum local = 0.000221847, global = -3.17018e-05, cumulative = -0.000711321
ExecutionTime = 77.2232 s  ClockTime = 77 s

Time = 68s

DILUPBiCGStab:  Solving for Ux, Initial residual = 0.0392719, Final residual = 0.00223025, No Iterations 2
DILUPBiCGStab:  Solving for Uy, Initial residual = 0.0431149, Final residual = 0.00281274, No Iterations 2
DILUPBiCGStab:  Solving for Uz, Initial residual = 0.0332819, Final residual = 0.00214243, No Iterations 2
GAMG:  Solving for p, Initial residual = 0.404706, Final residual = 0.020948, No Iterations 3
time step continuity errors : sum local = 0.0001065, global = 2.80552e-05, cumulative = -0.000683266
ExecutionTime = 78.3435 s  ClockTime = 78 s

Time = 69s

DILUPBiCGStab:  Solving for Ux, Initial residual = 0.0407673, Final residual = 0.00228454, No Iterations 2
DILUPBiCGStab:  Solving for Uy, Initial residual = 0.0429283, Final residual = 0.00283615, No Iterations 2
DILUPBiCGStab:  Solving for Uz, Initial residual = 0.0339537, Final residual = 0.00218866, No Iterations 2
GAMG:  Solving for p, Initial residual = 0.277489, Final residual = 0.0270205, No Iterations 2
time step continuity errors : sum local = 0.000195202, global = -2.7214e-05, cumulative = -0.00071048
ExecutionTime = 79.4061 s  ClockTime = 79 s

Time = 70s

DILUPBiCGStab:  Solving for Ux, Initial residual = 0.0557539, Final residual = 0.00268066, No Iterations 2
DILUPBiCGStab:  Solving for Uy, Initial residual = 0.0413633, Final residual = 0.00269285, No Iterations 2
DILUPBiCGStab:  Solving for Uz, Initial residual = 0.0335956, Final residual = 0.0021319, No Iterations 2
GAMG:  Solving for p, Initial residual = 0.248615, Final residual = 0.0167268, No Iterations 2
time step continuity errors : sum local = 0.000147311, global = -2.12818e-05, cumulative = -0.000731761
ExecutionTime = 80.4636 s  ClockTime = 80 s

Time = 71s

DILUPBiCGStab:  Solving for Ux, Initial residual = 0.0532569, Final residual = 0.0026531, No Iterations 2
DILUPBiCGStab:  Solving for Uy, Initial residual = 0.0399859, Final residual = 0.00254296, No Iterations 2
DILUPBiCGStab:  Solving for Uz, Initial residual = 0.0317853, Final residual = 0.00199854, No Iterations 2
GAMG:  Solving for p, Initial residual = 0.256213, Final residual = 0.0154241, No Iterations 2
time step continuity errors : sum local = 0.000130618, global = -2.06842e-05, cumulative = -0.000752446
ExecutionTime = 81.5274 s  ClockTime = 81 s

Time = 72s

DILUPBiCGStab:  Solving for Ux, Initial residual = 0.0347702, Final residual = 0.00195274, No Iterations 2
DILUPBiCGStab:  Solving for Uy, Initial residual = 0.0391169, Final residual = 0.00247715, No Iterations 2
DILUPBiCGStab:  Solving for Uz, Initial residual = 0.0305631, Final residual = 0.0019076, No Iterations 2
GAMG:  Solving for p, Initial residual = 0.309708, Final residual = 0.0251316, No Iterations 2
time step continuity errors : sum local = 0.000163254, global = -2.32654e-05, cumulative = -0.000775711
ExecutionTime = 82.5837 s  ClockTime = 82 s

Time = 73s

DILUPBiCGStab:  Solving for Ux, Initial residual = 0.0223495, Final residual = 0.00150202, No Iterations 2
DILUPBiCGStab:  Solving for Uy, Initial residual = 0.038863, Final residual = 0.00247231, No Iterations 2
DILUPBiCGStab:  Solving for Uz, Initial residual = 0.0300065, Final residual = 0.00187092, No Iterations 2
GAMG:  Solving for p, Initial residual = 0.406251, Final residual = 0.0281374, No Iterations 2
time step continuity errors : sum local = 0.000138096, global = -1.75752e-05, cumulative = -0.000793286
ExecutionTime = 83.6483 s  ClockTime = 83 s

Time = 74s

DILUPBiCGStab:  Solving for Ux, Initial residual = 0.0269665, Final residual = 0.00163089, No Iterations 2
DILUPBiCGStab:  Solving for Uy, Initial residual = 0.0389599, Final residual = 0.00247478, No Iterations 2
DILUPBiCGStab:  Solving for Uz, Initial residual = 0.0282111, Final residual = 0.00177652, No Iterations 2
GAMG:  Solving for p, Initial residual = 0.352616, Final residual = 0.032906, No Iterations 2
time step continuity errors : sum local = 0.000188851, global = -1.73272e-05, cumulative = -0.000810613
ExecutionTime = 84.7057 s  ClockTime = 84 s

Time = 75s

DILUPBiCGStab:  Solving for Ux, Initial residual = 0.0298886, Final residual = 0.00168428, No Iterations 2
DILUPBiCGStab:  Solving for Uy, Initial residual = 0.0397567, Final residual = 0.00251024, No Iterations 2
DILUPBiCGStab:  Solving for Uz, Initial residual = 0.0276447, Final residual = 0.00172448, No Iterations 2
GAMG:  Solving for p, Initial residual = 0.352877, Final residual = 0.011216, No Iterations 3
time step continuity errors : sum local = 6.05349e-05, global = 6.63483e-06, cumulative = -0.000803979
ExecutionTime = 85.8352 s  ClockTime = 85 s

Time = 76s

DILUPBiCGStab:  Solving for Ux, Initial residual = 0.0281484, Final residual = 0.00165969, No Iterations 2
DILUPBiCGStab:  Solving for Uy, Initial residual = 0.0394271, Final residual = 0.00255751, No Iterations 2
DILUPBiCGStab:  Solving for Uz, Initial residual = 0.0276674, Final residual = 0.00173987, No Iterations 2
GAMG:  Solving for p, Initial residual = 0.398275, Final residual = 0.029814, No Iterations 2
time step continuity errors : sum local = 0.000130865, global = -1.74834e-05, cumulative = -0.000821462
ExecutionTime = 86.8933 s  ClockTime = 87 s

Time = 77s

DILUPBiCGStab:  Solving for Ux, Initial residual = 0.0220827, Final residual = 0.00139771, No Iterations 2
DILUPBiCGStab:  Solving for Uy, Initial residual = 0.0366594, Final residual = 0.00240074, No Iterations 2
DILUPBiCGStab:  Solving for Uz, Initial residual = 0.0263324, Final residual = 0.00166586, No Iterations 2
GAMG:  Solving for p, Initial residual = 0.317385, Final residual = 0.0223463, No Iterations 2
time step continuity errors : sum local = 0.000115393, global = -1.90066e-05, cumulative = -0.000840469
ExecutionTime = 87.953 s  ClockTime = 88 s

Time = 78s

DILUPBiCGStab:  Solving for Ux, Initial residual = 0.0244025, Final residual = 0.00141638, No Iterations 2
DILUPBiCGStab:  Solving for Uy, Initial residual = 0.0352697, Final residual = 0.0022972, No Iterations 2
DILUPBiCGStab:  Solving for Uz, Initial residual = 0.0247144, Final residual = 0.00158994, No Iterations 2
GAMG:  Solving for p, Initial residual = 0.285356, Final residual = 0.0199882, No Iterations 2
time step continuity errors : sum local = 0.000115752, global = -1.57476e-05, cumulative = -0.000856216
ExecutionTime = 89.0115 s  ClockTime = 89 s

Time = 79s

DILUPBiCGStab:  Solving for Ux, Initial residual = 0.0263599, Final residual = 0.00145299, No Iterations 2
DILUPBiCGStab:  Solving for Uy, Initial residual = 0.0353532, Final residual = 0.00225406, No Iterations 2
DILUPBiCGStab:  Solving for Uz, Initial residual = 0.0237392, Final residual = 0.00152915, No Iterations 2
GAMG:  Solving for p, Initial residual = 0.288995, Final residual = 0.0133621, No Iterations 2
time step continuity errors : sum local = 7.61394e-05, global = -1.48973e-05, cumulative = -0.000871114
ExecutionTime = 90.0751 s  ClockTime = 90 s

Time = 80s

DILUPBiCGStab:  Solving for Ux, Initial residual = 0.023725, Final residual = 0.00134639, No Iterations 2
DILUPBiCGStab:  Solving for Uy, Initial residual = 0.034788, Final residual = 0.00218074, No Iterations 2
DILUPBiCGStab:  Solving for Uz, Initial residual = 0.0232356, Final residual = 0.0014747, No Iterations 2
GAMG:  Solving for p, Initial residual = 0.299306, Final residual = 0.016015, No Iterations 2
time step continuity errors : sum local = 8.52071e-05, global = -1.09548e-05, cumulative = -0.000882068
ExecutionTime = 91.133 s  ClockTime = 91 s

Time = 81s

DILUPBiCGStab:  Solving for Ux, Initial residual = 0.0170023, Final residual = 0.00111958, No Iterations 2
DILUPBiCGStab:  Solving for Uy, Initial residual = 0.0351685, Final residual = 0.00221038, No Iterations 2
DILUPBiCGStab:  Solving for Uz, Initial residual = 0.0233312, Final residual = 0.00148115, No Iterations 2
GAMG:  Solving for p, Initial residual = 0.344305, Final residual = 0.0200603, No Iterations 2
time step continuity errors : sum local = 8.81002e-05, global = -1.03782e-05, cumulative = -0.000892447
ExecutionTime = 92.1942 s  ClockTime = 92 s

Time = 82s

DILUPBiCGStab:  Solving for Ux, Initial residual = 0.0165505, Final residual = 0.00111186, No Iterations 2
DILUPBiCGStab:  Solving for Uy, Initial residual = 0.0366046, Final residual = 0.00229282, No Iterations 2
DILUPBiCGStab:  Solving for Uz, Initial residual = 0.0236004, Final residual = 0.00150347, No Iterations 2
GAMG:  Solving for p, Initial residual = 0.356026, Final residual = 0.0228763, No Iterations 2
time step continuity errors : sum local = 9.62812e-05, global = -1.04541e-05, cumulative = -0.000902901
ExecutionTime = 93.2537 s  ClockTime = 93 s

Time = 83s

DILUPBiCGStab:  Solving for Ux, Initial residual = 0.019644, Final residual = 0.00116198, No Iterations 2
DILUPBiCGStab:  Solving for Uy, Initial residual = 0.0360463, Final residual = 0.00225808, No Iterations 2
DILUPBiCGStab:  Solving for Uz, Initial residual = 0.0227815, Final residual = 0.00145086, No Iterations 2
GAMG:  Solving for p, Initial residual = 0.356215, Final residual = 0.0253149, No Iterations 2
time step continuity errors : sum local = 0.000104677, global = -2.79844e-06, cumulative = -0.000905699
ExecutionTime = 94.3132 s  ClockTime = 94 s

Time = 84s

DILUPBiCGStab:  Solving for Ux, Initial residual = 0.0192441, Final residual = 0.00112619, No Iterations 2
DILUPBiCGStab:  Solving for Uy, Initial residual = 0.0349352, Final residual = 0.00221046, No Iterations 2
DILUPBiCGStab:  Solving for Uz, Initial residual = 0.0221604, Final residual = 0.00141434, No Iterations 2
GAMG:  Solving for p, Initial residual = 0.359825, Final residual = 0.0230355, No Iterations 2
time step continuity errors : sum local = 9.01235e-05, global = -1.47707e-05, cumulative = -0.00092047
ExecutionTime = 95.3699 s  ClockTime = 95 s

Time = 85s

DILUPBiCGStab:  Solving for Ux, Initial residual = 0.0149874, Final residual = 0.000958286, No Iterations 2
DILUPBiCGStab:  Solving for Uy, Initial residual = 0.0333651, Final residual = 0.00211997, No Iterations 2
DILUPBiCGStab:  Solving for Uz, Initial residual = 0.0216522, Final residual = 0.00139958, No Iterations 2
GAMG:  Solving for p, Initial residual = 0.308791, Final residual = 0.0206191, No Iterations 2
time step continuity errors : sum local = 8.94441e-05, global = -1.8543e-05, cumulative = -0.000939013
ExecutionTime = 96.4318 s  ClockTime = 96 s

Time = 86s

DILUPBiCGStab:  Solving for Ux, Initial residual = 0.0136313, Final residual = 0.000891436, No Iterations 2
DILUPBiCGStab:  Solving for Uy, Initial residual = 0.0326073, Final residual = 0.00206813, No Iterations 2
DILUPBiCGStab:  Solving for Uz, Initial residual = 0.0215897, Final residual = 0.00141258, No Iterations 2
GAMG:  Solving for p, Initial residual = 0.291341, Final residual = 0.021199, No Iterations 2
time step continuity errors : sum local = 9.64852e-05, global = -2.15533e-05, cumulative = -0.000960566
ExecutionTime = 97.4865 s  ClockTime = 97 s

Time = 87s

DILUPBiCGStab:  Solving for Ux, Initial residual = 0.0156323, Final residual = 0.000930558, No Iterations 2
DILUPBiCGStab:  Solving for Uy, Initial residual = 0.0325905, Final residual = 0.00204574, No Iterations 2
DILUPBiCGStab:  Solving for Uz, Initial residual = 0.0216539, Final residual = 0.00141445, No Iterations 2
GAMG:  Solving for p, Initial residual = 0.296265, Final residual = 0.0214019, No Iterations 2
time step continuity errors : sum local = 9.64599e-05, global = -1.33578e-05, cumulative = -0.000973924
ExecutionTime = 98.5473 s  ClockTime = 98 s

Time = 88s

DILUPBiCGStab:  Solving for Ux, Initial residual = 0.0174623, Final residual = 0.000979026, No Iterations 2
DILUPBiCGStab:  Solving for Uy, Initial residual = 0.032851, Final residual = 0.00202934, No Iterations 2
DILUPBiCGStab:  Solving for Uz, Initial residual = 0.0217597, Final residual = 0.00140662, No Iterations 2
GAMG:  Solving for p, Initial residual = 0.31998, Final residual = 0.0292825, No Iterations 2
time step continuity errors : sum local = 0.000122341, global = -8.67076e-06, cumulative = -0.000982595
ExecutionTime = 99.6019 s  ClockTime = 99 s

Time = 89s

DILUPBiCGStab:  Solving for Ux, Initial residual = 0.0154768, Final residual = 0.000914967, No Iterations 2
DILUPBiCGStab:  Solving for Uy, Initial residual = 0.0322812, Final residual = 0.00197985, No Iterations 2
DILUPBiCGStab:  Solving for Uz, Initial residual = 0.0215508, Final residual = 0.00137757, No Iterations 2
GAMG:  Solving for p, Initial residual = 0.346015, Final residual = 0.0271196, No Iterations 2
time step continuity errors : sum local = 0.00010208, global = -1.49663e-05, cumulative = -0.000997561
ExecutionTime = 100.665 s  ClockTime = 100 s

Time = 90s

DILUPBiCGStab:  Solving for Ux, Initial residual = 0.0129915, Final residual = 0.000803877, No Iterations 2
DILUPBiCGStab:  Solving for Uy, Initial residual = 0.0313356, Final residual = 0.00191036, No Iterations 2
DILUPBiCGStab:  Solving for Uz, Initial residual = 0.0208705, Final residual = 0.00132058, No Iterations 2
GAMG:  Solving for p, Initial residual = 0.327417, Final residual = 0.0265698, No Iterations 2
time step continuity errors : sum local = 0.000102587, global = -1.26108e-05, cumulative = -0.00101017
ExecutionTime = 101.723 s  ClockTime = 101 s

Time = 91s

DILUPBiCGStab:  Solving for Ux, Initial residual = 0.0126017, Final residual = 0.000786197, No Iterations 2
DILUPBiCGStab:  Solving for Uy, Initial residual = 0.0308443, Final residual = 0.0018615, No Iterations 2
DILUPBiCGStab:  Solving for Uz, Initial residual = 0.0202797, Final residual = 0.00127966, No Iterations 2
GAMG:  Solving for p, Initial residual = 0.316008, Final residual = 0.021396, No Iterations 2
time step continuity errors : sum local = 8.31217e-05, global = -2.84161e-06, cumulative = -0.00101301
ExecutionTime = 102.786 s  ClockTime = 102 s

Time = 92s

DILUPBiCGStab:  Solving for Ux, Initial residual = 0.0133752, Final residual = 0.000807848, No Iterations 2
DILUPBiCGStab:  Solving for Uy, Initial residual = 0.0306381, Final residual = 0.0018318, No Iterations 2
DILUPBiCGStab:  Solving for Uz, Initial residual = 0.0198318, Final residual = 0.00126423, No Iterations 2
GAMG:  Solving for p, Initial residual = 0.312277, Final residual = 0.0154762, No Iterations 2
time step continuity errors : sum local = 5.95032e-05, global = -1.63723e-06, cumulative = -0.00101465
ExecutionTime = 103.845 s  ClockTime = 103 s

Time = 93s

DILUPBiCGStab:  Solving for Ux, Initial residual = 0.0125358, Final residual = 0.000773854, No Iterations 2
DILUPBiCGStab:  Solving for Uy, Initial residual = 0.0297543, Final residual = 0.00178087, No Iterations 2
DILUPBiCGStab:  Solving for Uz, Initial residual = 0.0194123, Final residual = 0.00126765, No Iterations 2
GAMG:  Solving for p, Initial residual = 0.322634, Final residual = 0.0186262, No Iterations 2
time step continuity errors : sum local = 6.73028e-05, global = 1.19599e-05, cumulative = -0.00100269
ExecutionTime = 104.907 s  ClockTime = 105 s

Time = 94s

DILUPBiCGStab:  Solving for Ux, Initial residual = 0.011206, Final residual = 0.00071072, No Iterations 2
DILUPBiCGStab:  Solving for Uy, Initial residual = 0.0289481, Final residual = 0.00173212, No Iterations 2
DILUPBiCGStab:  Solving for Uz, Initial residual = 0.0193, Final residual = 0.00125156, No Iterations 2
GAMG:  Solving for p, Initial residual = 0.313965, Final residual = 0.0248958, No Iterations 2
time step continuity errors : sum local = 9.01779e-05, global = 1.67093e-05, cumulative = -0.000985981
ExecutionTime = 105.966 s  ClockTime = 106 s

Time = 95s

DILUPBiCGStab:  Solving for Ux, Initial residual = 0.0117582, Final residual = 0.000718651, No Iterations 2
DILUPBiCGStab:  Solving for Uy, Initial residual = 0.0283759, Final residual = 0.00168513, No Iterations 2
DILUPBiCGStab:  Solving for Uz, Initial residual = 0.0191996, Final residual = 0.00123646, No Iterations 2
GAMG:  Solving for p, Initial residual = 0.288735, Final residual = 0.0235337, No Iterations 2
time step continuity errors : sum local = 9.24367e-05, global = -9.94684e-07, cumulative = -0.000986976
ExecutionTime = 107.025 s  ClockTime = 107 s

Time = 96s

DILUPBiCGStab:  Solving for Ux, Initial residual = 0.0140186, Final residual = 0.000780799, No Iterations 2
DILUPBiCGStab:  Solving for Uy, Initial residual = 0.0283263, Final residual = 0.00167104, No Iterations 2
DILUPBiCGStab:  Solving for Uz, Initial residual = 0.0191292, Final residual = 0.0012133, No Iterations 2
GAMG:  Solving for p, Initial residual = 0.261437, Final residual = 0.0113886, No Iterations 2
time step continuity errors : sum local = 5.04555e-05, global = 2.13087e-06, cumulative = -0.000984845
ExecutionTime = 108.084 s  ClockTime = 108 s

Time = 97s

DILUPBiCGStab:  Solving for Ux, Initial residual = 0.0135395, Final residual = 0.000741198, No Iterations 2
DILUPBiCGStab:  Solving for Uy, Initial residual = 0.0273193, Final residual = 0.00160374, No Iterations 2
DILUPBiCGStab:  Solving for Uz, Initial residual = 0.0186462, Final residual = 0.00116573, No Iterations 2
GAMG:  Solving for p, Initial residual = 0.254695, Final residual = 0.0149488, No Iterations 2
time step continuity errors : sum local = 6.72113e-05, global = 8.221e-06, cumulative = -0.000976624
ExecutionTime = 109.146 s  ClockTime = 109 s

Time = 98s

DILUPBiCGStab:  Solving for Ux, Initial residual = 0.0117, Final residual = 0.000669073, No Iterations 2
DILUPBiCGStab:  Solving for Uy, Initial residual = 0.0269338, Final residual = 0.0015898, No Iterations 2
DILUPBiCGStab:  Solving for Uz, Initial residual = 0.0186748, Final residual = 0.00115328, No Iterations 2
GAMG:  Solving for p, Initial residual = 0.257927, Final residual = 0.0153928, No Iterations 2
time step continuity errors : sum local = 6.71076e-05, global = 1.18811e-05, cumulative = -0.000964743
ExecutionTime = 110.208 s  ClockTime = 110 s

Time = 99s

DILUPBiCGStab:  Solving for Ux, Initial residual = 0.00987972, Final residual = 0.000589451, No Iterations 2
DILUPBiCGStab:  Solving for Uy, Initial residual = 0.0269251, Final residual = 0.00158848, No Iterations 2
DILUPBiCGStab:  Solving for Uz, Initial residual = 0.0184886, Final residual = 0.00113819, No Iterations 2
GAMG:  Solving for p, Initial residual = 0.269008, Final residual = 0.0172583, No Iterations 2
time step continuity errors : sum local = 7.15551e-05, global = 1.39842e-05, cumulative = -0.000950759
ExecutionTime = 111.266 s  ClockTime = 111 s

Time = 100s

DILUPBiCGStab:  Solving for Ux, Initial residual = 0.00961368, Final residual = 0.000571931, No Iterations 2
DILUPBiCGStab:  Solving for Uy, Initial residual = 0.0276227, Final residual = 0.00160044, No Iterations 2
DILUPBiCGStab:  Solving for Uz, Initial residual = 0.0182145, Final residual = 0.0011144, No Iterations 2
GAMG:  Solving for p, Initial residual = 0.287084, Final residual = 0.0175115, No Iterations 2
time step continuity errors : sum local = 6.79832e-05, global = 3.3239e-07, cumulative = -0.000950427
ExecutionTime = 112.326 s  ClockTime = 112 s

Time = 101s

DILUPBiCGStab:  Solving for Ux, Initial residual = 0.0106268, Final residual = 0.000597441, No Iterations 2
DILUPBiCGStab:  Solving for Uy, Initial residual = 0.0286499, Final residual = 0.00162784, No Iterations 2
DILUPBiCGStab:  Solving for Uz, Initial residual = 0.0181296, Final residual = 0.00108716, No Iterations 2
GAMG:  Solving for p, Initial residual = 0.284694, Final residual = 0.0123465, No Iterations 2
time step continuity errors : sum local = 4.79774e-05, global = 2.44599e-06, cumulative = -0.000947981
ExecutionTime = 113.388 s  ClockTime = 113 s

Time = 102s

DILUPBiCGStab:  Solving for Ux, Initial residual = 0.0105277, Final residual = 0.000580958, No Iterations 2
DILUPBiCGStab:  Solving for Uy, Initial residual = 0.0285865, Final residual = 0.00160854, No Iterations 2
DILUPBiCGStab:  Solving for Uz, Initial residual = 0.0178954, Final residual = 0.00105891, No Iterations 2
GAMG:  Solving for p, Initial residual = 0.273704, Final residual = 0.0125239, No Iterations 2
time step continuity errors : sum local = 4.95136e-05, global = 9.64383e-06, cumulative = -0.000938337
ExecutionTime = 114.446 s  ClockTime = 114 s

Time = 103s

DILUPBiCGStab:  Solving for Ux, Initial residual = 0.00983055, Final residual = 0.000542749, No Iterations 2
DILUPBiCGStab:  Solving for Uy, Initial residual = 0.0283946, Final residual = 0.00159849, No Iterations 2
DILUPBiCGStab:  Solving for Uz, Initial residual = 0.0179792, Final residual = 0.00105526, No Iterations 2
GAMG:  Solving for p, Initial residual = 0.257927, Final residual = 0.0121878, No Iterations 2
time step continuity errors : sum local = 4.98339e-05, global = 8.35157e-06, cumulative = -0.000929985
ExecutionTime = 115.509 s  ClockTime = 115 s

Time = 104s

DILUPBiCGStab:  Solving for Ux, Initial residual = 0.00990746, Final residual = 0.000534346, No Iterations 2
DILUPBiCGStab:  Solving for Uy, Initial residual = 0.0281535, Final residual = 0.00159839, No Iterations 2
DILUPBiCGStab:  Solving for Uz, Initial residual = 0.0184002, Final residual = 0.00106427, No Iterations 2
GAMG:  Solving for p, Initial residual = 0.231177, Final residual = 0.0121551, No Iterations 2
time step continuity errors : sum local = 5.46976e-05, global = 9.76742e-06, cumulative = -0.000920218
ExecutionTime = 116.57 s  ClockTime = 116 s

Time = 105s

DILUPBiCGStab:  Solving for Ux, Initial residual = 0.0107706, Final residual = 0.000552674, No Iterations 2
DILUPBiCGStab:  Solving for Uy, Initial residual = 0.0277775, Final residual = 0.00159828, No Iterations 2
DILUPBiCGStab:  Solving for Uz, Initial residual = 0.0185317, Final residual = 0.0010532, No Iterations 2
GAMG:  Solving for p, Initial residual = 0.218707, Final residual = 0.0124327, No Iterations 2
time step continuity errors : sum local = 5.90293e-05, global = 3.57491e-06, cumulative = -0.000916643
ExecutionTime = 117.629 s  ClockTime = 117 s

Time = 106s

DILUPBiCGStab:  Solving for Ux, Initial residual = 0.0112375, Final residual = 0.000564055, No Iterations 2
DILUPBiCGStab:  Solving for Uy, Initial residual = 0.0271101, Final residual = 0.00158815, No Iterations 2
DILUPBiCGStab:  Solving for Uz, Initial residual = 0.0185915, Final residual = 0.00103749, No Iterations 2
GAMG:  Solving for p, Initial residual = 0.211171, Final residual = 0.00871154, No Iterations 2
time step continuity errors : sum local = 4.24257e-05, global = -3.5604e-07, cumulative = -0.000916999
ExecutionTime = 118.687 s  ClockTime = 118 s

Time = 107s

DILUPBiCGStab:  Solving for Ux, Initial residual = 0.0104653, Final residual = 0.00053453, No Iterations 2
DILUPBiCGStab:  Solving for Uy, Initial residual = 0.0264417, Final residual = 0.00161523, No Iterations 2
DILUPBiCGStab:  Solving for Uz, Initial residual = 0.0182705, Final residual = 0.00100651, No Iterations 2
GAMG:  Solving for p, Initial residual = 0.212899, Final residual = 0.0108107, No Iterations 2
time step continuity errors : sum local = 5.11628e-05, global = 8.30695e-06, cumulative = -0.000908692
ExecutionTime = 119.747 s  ClockTime = 119 s

Time = 108s

DILUPBiCGStab:  Solving for Ux, Initial residual = 0.00852768, Final residual = 0.00046349, No Iterations 2
DILUPBiCGStab:  Solving for Uy, Initial residual = 0.0264401, Final residual = 0.00162295, No Iterations 2
DILUPBiCGStab:  Solving for Uz, Initial residual = 0.0177944, Final residual = 0.00097943, No Iterations 2
GAMG:  Solving for p, Initial residual = 0.227963, Final residual = 0.0123234, No Iterations 2
time step continuity errors : sum local = 5.2624e-05, global = 7.75753e-06, cumulative = -0.000900934
ExecutionTime = 120.804 s  ClockTime = 120 s

Time = 109s

DILUPBiCGStab:  Solving for Ux, Initial residual = 0.00779015, Final residual = 0.000448177, No Iterations 2
DILUPBiCGStab:  Solving for Uy, Initial residual = 0.0272081, Final residual = 0.00165466, No Iterations 2
DILUPBiCGStab:  Solving for Uz, Initial residual = 0.0172303, Final residual = 0.000947643, No Iterations 2
GAMG:  Solving for p, Initial residual = 0.271403, Final residual = 0.0145249, No Iterations 2
time step continuity errors : sum local = 5.15067e-05, global = 7.31595e-06, cumulative = -0.000893618
ExecutionTime = 121.866 s  ClockTime = 122 s

Time = 110s

DILUPBiCGStab:  Solving for Ux, Initial residual = 0.00909661, Final residual = 0.000493554, No Iterations 2
DILUPBiCGStab:  Solving for Uy, Initial residual = 0.0267154, Final residual = 0.00160073, No Iterations 2
DILUPBiCGStab:  Solving for Uz, Initial residual = 0.0165084, Final residual = 0.000901473, No Iterations 2
GAMG:  Solving for p, Initial residual = 0.289457, Final residual = 0.0117733, No Iterations 2
time step continuity errors : sum local = 3.92112e-05, global = -1.87577e-06, cumulative = -0.000895494
ExecutionTime = 122.926 s  ClockTime = 123 s

Time = 111s

DILUPBiCGStab:  Solving for Ux, Initial residual = 0.00890621, Final residual = 0.000475834, No Iterations 2
DILUPBiCGStab:  Solving for Uy, Initial residual = 0.0254766, Final residual = 0.00150472, No Iterations 2
DILUPBiCGStab:  Solving for Uz, Initial residual = 0.0158829, Final residual = 0.000856903, No Iterations 2
GAMG:  Solving for p, Initial residual = 0.280588, Final residual = 0.0134536, No Iterations 2
time step continuity errors : sum local = 4.48807e-05, global = 2.24102e-06, cumulative = -0.000893253
ExecutionTime = 123.99 s  ClockTime = 124 s

Time = 112s

DILUPBiCGStab:  Solving for Ux, Initial residual = 0.00804664, Final residual = 0.000444481, No Iterations 2
DILUPBiCGStab:  Solving for Uy, Initial residual = 0.0245032, Final residual = 0.00143149, No Iterations 2
DILUPBiCGStab:  Solving for Uz, Initial residual = 0.0156971, Final residual = 0.000845408, No Iterations 2
GAMG:  Solving for p, Initial residual = 0.278003, Final residual = 0.0155705, No Iterations 2
time step continuity errors : sum local = 5.1467e-05, global = -2.13713e-06, cumulative = -0.00089539
ExecutionTime = 125.049 s  ClockTime = 125 s

Time = 113s

DILUPBiCGStab:  Solving for Ux, Initial residual = 0.00780704, Final residual = 0.000429514, No Iterations 2
DILUPBiCGStab:  Solving for Uy, Initial residual = 0.0243739, Final residual = 0.00140783, No Iterations 2
DILUPBiCGStab:  Solving for Uz, Initial residual = 0.0155564, Final residual = 0.000834606, No Iterations 2
GAMG:  Solving for p, Initial residual = 0.287058, Final residual = 0.012277, No Iterations 2
time step continuity errors : sum local = 3.89109e-05, global = 9.92356e-07, cumulative = -0.000894398
ExecutionTime = 126.114 s  ClockTime = 126 s

Time = 114s

DILUPBiCGStab:  Solving for Ux, Initial residual = 0.00790465, Final residual = 0.000429398, No Iterations 2
DILUPBiCGStab:  Solving for Uy, Initial residual = 0.024305, Final residual = 0.0013835, No Iterations 2
DILUPBiCGStab:  Solving for Uz, Initial residual = 0.0153558, Final residual = 0.000815006, No Iterations 2
GAMG:  Solving for p, Initial residual = 0.284682, Final residual = 0.0118803, No Iterations 2
time step continuity errors : sum local = 3.76821e-05, global = -1.30017e-06, cumulative = -0.000895698
ExecutionTime = 127.174 s  ClockTime = 127 s

Time = 115s

DILUPBiCGStab:  Solving for Ux, Initial residual = 0.00783842, Final residual = 0.000420411, No Iterations 2
DILUPBiCGStab:  Solving for Uy, Initial residual = 0.024277, Final residual = 0.00136644, No Iterations 2
DILUPBiCGStab:  Solving for Uz, Initial residual = 0.0152319, Final residual = 0.000806354, No Iterations 2
GAMG:  Solving for p, Initial residual = 0.282194, Final residual = 0.0120838, No Iterations 2
time step continuity errors : sum local = 3.85163e-05, global = -5.65352e-07, cumulative = -0.000896263
ExecutionTime = 128.238 s  ClockTime = 128 s

Time = 116s

DILUPBiCGStab:  Solving for Ux, Initial residual = 0.00773284, Final residual = 0.000418437, No Iterations 2
DILUPBiCGStab:  Solving for Uy, Initial residual = 0.0250282, Final residual = 0.00140492, No Iterations 2
DILUPBiCGStab:  Solving for Uz, Initial residual = 0.0154225, Final residual = 0.000819943, No Iterations 2
GAMG:  Solving for p, Initial residual = 0.276898, Final residual = 0.012617, No Iterations 2
time step continuity errors : sum local = 4.08543e-05, global = -3.64206e-08, cumulative = -0.0008963
ExecutionTime = 129.298 s  ClockTime = 129 s

Time = 117s

DILUPBiCGStab:  Solving for Ux, Initial residual = 0.00789533, Final residual = 0.000424193, No Iterations 2
DILUPBiCGStab:  Solving for Uy, Initial residual = 0.0266242, Final residual = 0.00148241, No Iterations 2
DILUPBiCGStab:  Solving for Uz, Initial residual = 0.0156385, Final residual = 0.000834974, No Iterations 2
GAMG:  Solving for p, Initial residual = 0.27018, Final residual = 0.0107863, No Iterations 2
time step continuity errors : sum local = 3.57649e-05, global = -3.76219e-08, cumulative = -0.000896338
ExecutionTime = 130.364 s  ClockTime = 130 s

Time = 118s

DILUPBiCGStab:  Solving for Ux, Initial residual = 0.00792251, Final residual = 0.000417355, No Iterations 2
DILUPBiCGStab:  Solving for Uy, Initial residual = 0.0270383, Final residual = 0.00149475, No Iterations 2
DILUPBiCGStab:  Solving for Uz, Initial residual = 0.0155578, Final residual = 0.000828309, No Iterations 2
GAMG:  Solving for p, Initial residual = 0.268692, Final residual = 0.0112859, No Iterations 2
time step continuity errors : sum local = 3.73524e-05, global = -5.06228e-07, cumulative = -0.000896844
ExecutionTime = 131.423 s  ClockTime = 131 s

Time = 119s

DILUPBiCGStab:  Solving for Ux, Initial residual = 0.00786104, Final residual = 0.000413353, No Iterations 2
DILUPBiCGStab:  Solving for Uy, Initial residual = 0.0271759, Final residual = 0.0015047, No Iterations 2
DILUPBiCGStab:  Solving for Uz, Initial residual = 0.0154918, Final residual = 0.000827041, No Iterations 2
GAMG:  Solving for p, Initial residual = 0.268684, Final residual = 0.0113816, No Iterations 2
time step continuity errors : sum local = 3.74208e-05, global = 3.40133e-07, cumulative = -0.000896504
ExecutionTime = 132.483 s  ClockTime = 132 s

Time = 120s

DILUPBiCGStab:  Solving for Ux, Initial residual = 0.00774472, Final residual = 0.0004079, No Iterations 2
DILUPBiCGStab:  Solving for Uy, Initial residual = 0.0271617, Final residual = 0.00150527, No Iterations 2
DILUPBiCGStab:  Solving for Uz, Initial residual = 0.0156023, Final residual = 0.000832785, No Iterations 2
GAMG:  Solving for p, Initial residual = 0.270828, Final residual = 0.0129235, No Iterations 2
time step continuity errors : sum local = 4.19441e-05, global = 2.17998e-06, cumulative = -0.000894324
ExecutionTime = 133.542 s  ClockTime = 133 s

Time = 121s

DILUPBiCGStab:  Solving for Ux, Initial residual = 0.00748263, Final residual = 0.000402739, No Iterations 2
DILUPBiCGStab:  Solving for Uy, Initial residual = 0.0272303, Final residual = 0.00150999, No Iterations 2
DILUPBiCGStab:  Solving for Uz, Initial residual = 0.0158121, Final residual = 0.000844889, No Iterations 2
GAMG:  Solving for p, Initial residual = 0.276678, Final residual = 0.0122649, No Iterations 2
time step continuity errors : sum local = 3.88476e-05, global = 8.83649e-07, cumulative = -0.00089344
ExecutionTime = 134.607 s  ClockTime = 134 s

Time = 122s

DILUPBiCGStab:  Solving for Ux, Initial residual = 0.0073873, Final residual = 0.000398973, No Iterations 2
DILUPBiCGStab:  Solving for Uy, Initial residual = 0.02754, Final residual = 0.00151806, No Iterations 2
DILUPBiCGStab:  Solving for Uz, Initial residual = 0.0158558, Final residual = 0.000846707, No Iterations 2
GAMG:  Solving for p, Initial residual = 0.281149, Final residual = 0.0115853, No Iterations 2
time step continuity errors : sum local = 3.5864e-05, global = -3.17797e-07, cumulative = -0.000893758
ExecutionTime = 135.666 s  ClockTime = 135 s

Time = 123s

DILUPBiCGStab:  Solving for Ux, Initial residual = 0.00728226, Final residual = 0.000389415, No Iterations 2
DILUPBiCGStab:  Solving for Uy, Initial residual = 0.0274047, Final residual = 0.00149356, No Iterations 2
DILUPBiCGStab:  Solving for Uz, Initial residual = 0.0156841, Final residual = 0.0008289, No Iterations 2
GAMG:  Solving for p, Initial residual = 0.278656, Final residual = 0.0116483, No Iterations 2
time step continuity errors : sum local = 3.58765e-05, global = -3.76479e-07, cumulative = -0.000894134
ExecutionTime = 136.729 s  ClockTime = 136 s

Time = 124s

DILUPBiCGStab:  Solving for Ux, Initial residual = 0.00739885, Final residual = 0.000393053, No Iterations 2
DILUPBiCGStab:  Solving for Uy, Initial residual = 0.0275056, Final residual = 0.00149796, No Iterations 2
DILUPBiCGStab:  Solving for Uz, Initial residual = 0.0156282, Final residual = 0.0008253, No Iterations 2
GAMG:  Solving for p, Initial residual = 0.273273, Final residual = 0.0149781, No Iterations 2
time step continuity errors : sum local = 4.66235e-05, global = 3.45592e-06, cumulative = -0.000890678
ExecutionTime = 137.788 s  ClockTime = 137 s

Time = 125s

DILUPBiCGStab:  Solving for Ux, Initial residual = 0.00811986, Final residual = 0.000419658, No Iterations 2
DILUPBiCGStab:  Solving for Uy, Initial residual = 0.0281739, Final residual = 0.00152937, No Iterations 2
DILUPBiCGStab:  Solving for Uz, Initial residual = 0.0158474, Final residual = 0.000841497, No Iterations 2
GAMG:  Solving for p, Initial residual = 0.255633, Final residual = 0.0162687, No Iterations 2
time step continuity errors : sum local = 5.38479e-05, global = 2.74925e-06, cumulative = -0.000887929
ExecutionTime = 138.852 s  ClockTime = 139 s

Time = 126s

DILUPBiCGStab:  Solving for Ux, Initial residual = 0.00906339, Final residual = 0.000450114, No Iterations 2
DILUPBiCGStab:  Solving for Uy, Initial residual = 0.028782, Final residual = 0.0015614, No Iterations 2
DILUPBiCGStab:  Solving for Uz, Initial residual = 0.0160914, Final residual = 0.000852904, No Iterations 2
GAMG:  Solving for p, Initial residual = 0.240173, Final residual = 0.010238, No Iterations 2
time step continuity errors : sum local = 3.61073e-05, global = -2.23619e-06, cumulative = -0.000890165
ExecutionTime = 139.911 s  ClockTime = 140 s

Time = 127s

DILUPBiCGStab:  Solving for Ux, Initial residual = 0.00908975, Final residual = 0.000452555, No Iterations 2
DILUPBiCGStab:  Solving for Uy, Initial residual = 0.0285325, Final residual = 0.00154561, No Iterations 2
DILUPBiCGStab:  Solving for Uz, Initial residual = 0.0161347, Final residual = 0.000855432, No Iterations 2
GAMG:  Solving for p, Initial residual = 0.238965, Final residual = 0.00954866, No Iterations 2
time step continuity errors : sum local = 3.34029e-05, global = -2.81706e-09, cumulative = -0.000890168
ExecutionTime = 140.974 s  ClockTime = 141 s

Time = 128s

DILUPBiCGStab:  Solving for Ux, Initial residual = 0.00908607, Final residual = 0.000453273, No Iterations 2
DILUPBiCGStab:  Solving for Uy, Initial residual = 0.0283977, Final residual = 0.00153913, No Iterations 2
DILUPBiCGStab:  Solving for Uz, Initial residual = 0.0162804, Final residual = 0.000865054, No Iterations 2
GAMG:  Solving for p, Initial residual = 0.236875, Final residual = 0.00970637, No Iterations 2
time step continuity errors : sum local = 3.34713e-05, global = 7.87497e-08, cumulative = -0.000890089
ExecutionTime = 142.033 s  ClockTime = 142 s

Time = 129s

DILUPBiCGStab:  Solving for Ux, Initial residual = 0.00902931, Final residual = 0.000451752, No Iterations 2
DILUPBiCGStab:  Solving for Uy, Initial residual = 0.0281917, Final residual = 0.00153274, No Iterations 2
DILUPBiCGStab:  Solving for Uz, Initial residual = 0.0163632, Final residual = 0.00087244, No Iterations 2
GAMG:  Solving for p, Initial residual = 0.234996, Final residual = 0.0101019, No Iterations 2
time step continuity errors : sum local = 3.45222e-05, global = 1.20987e-06, cumulative = -0.000888879
ExecutionTime = 143.095 s  ClockTime = 143 s

Time = 130s

DILUPBiCGStab:  Solving for Ux, Initial residual = 0.00879271, Final residual = 0.00044525, No Iterations 2
DILUPBiCGStab:  Solving for Uy, Initial residual = 0.0280776, Final residual = 0.00153101, No Iterations 2
DILUPBiCGStab:  Solving for Uz, Initial residual = 0.0163802, Final residual = 0.000875201, No Iterations 2
GAMG:  Solving for p, Initial residual = 0.234203, Final residual = 0.0116694, No Iterations 2
time step continuity errors : sum local = 3.92368e-05, global = 2.68341e-06, cumulative = -0.000886196
ExecutionTime = 144.153 s  ClockTime = 144 s

Time = 131s

DILUPBiCGStab:  Solving for Ux, Initial residual = 0.00811763, Final residual = 0.000422077, No Iterations 2
DILUPBiCGStab:  Solving for Uy, Initial residual = 0.0280988, Final residual = 0.00153059, No Iterations 2
DILUPBiCGStab:  Solving for Uz, Initial residual = 0.0162608, Final residual = 0.000869191, No Iterations 2
GAMG:  Solving for p, Initial residual = 0.23962, Final residual = 0.0117687, No Iterations 2
time step continuity errors : sum local = 3.80856e-05, global = -7.94709e-07, cumulative = -0.000886991
ExecutionTime = 145.219 s  ClockTime = 145 s

Time = 132s

DILUPBiCGStab:  Solving for Ux, Initial residual = 0.00761671, Final residual = 0.000401549, No Iterations 2
DILUPBiCGStab:  Solving for Uy, Initial residual = 0.0280681, Final residual = 0.00152058, No Iterations 2
DILUPBiCGStab:  Solving for Uz, Initial residual = 0.0160228, Final residual = 0.000856446, No Iterations 2
GAMG:  Solving for p, Initial residual = 0.246825, Final residual = 0.00889299, No Iterations 2
time step continuity errors : sum local = 2.73566e-05, global = -6.14313e-09, cumulative = -0.000886997
ExecutionTime = 146.28 s  ClockTime = 146 s

Time = 133s

DILUPBiCGStab:  Solving for Ux, Initial residual = 0.00738708, Final residual = 0.000388422, No Iterations 2
DILUPBiCGStab:  Solving for Uy, Initial residual = 0.0276026, Final residual = 0.00148526, No Iterations 2
DILUPBiCGStab:  Solving for Uz, Initial residual = 0.0156953, Final residual = 0.000839028, No Iterations 2
GAMG:  Solving for p, Initial residual = 0.243248, Final residual = 0.00909705, No Iterations 2
time step continuity errors : sum local = 2.75126e-05, global = -5.55683e-07, cumulative = -0.000887553
ExecutionTime = 147.342 s  ClockTime = 147 s

Time = 134s

DILUPBiCGStab:  Solving for Ux, Initial residual = 0.00715221, Final residual = 0.000374521, No Iterations 2
DILUPBiCGStab:  Solving for Uy, Initial residual = 0.0271145, Final residual = 0.00144908, No Iterations 2
DILUPBiCGStab:  Solving for Uz, Initial residual = 0.015367, Final residual = 0.00081971, No Iterations 2
GAMG:  Solving for p, Initial residual = 0.238314, Final residual = 0.00936756, No Iterations 2
time step continuity errors : sum local = 2.80804e-05, global = -7.91455e-07, cumulative = -0.000888344
ExecutionTime = 148.401 s  ClockTime = 148 s

Time = 135s

DILUPBiCGStab:  Solving for Ux, Initial residual = 0.00702732, Final residual = 0.00036778, No Iterations 2
DILUPBiCGStab:  Solving for Uy, Initial residual = 0.0270958, Final residual = 0.00144008, No Iterations 2
DILUPBiCGStab:  Solving for Uz, Initial residual = 0.0152519, Final residual = 0.00081337, No Iterations 2
GAMG:  Solving for p, Initial residual = 0.23072, Final residual = 0.00991988, No Iterations 2
time step continuity errors : sum local = 2.98975e-05, global = -1.90278e-07, cumulative = -0.000888534
ExecutionTime = 149.464 s  ClockTime = 149 s

Time = 136s

DILUPBiCGStab:  Solving for Ux, Initial residual = 0.0070361, Final residual = 0.000363525, No Iterations 2
DILUPBiCGStab:  Solving for Uy, Initial residual = 0.0273537, Final residual = 0.00144445, No Iterations 2
DILUPBiCGStab:  Solving for Uz, Initial residual = 0.015152, Final residual = 0.000810325, No Iterations 2
GAMG:  Solving for p, Initial residual = 0.222289, Final residual = 0.00889523, No Iterations 2
time step continuity errors : sum local = 2.72781e-05, global = -1.06842e-06, cumulative = -0.000889603
ExecutionTime = 150.523 s  ClockTime = 150 s

Time = 137s

DILUPBiCGStab:  Solving for Ux, Initial residual = 0.00716983, Final residual = 0.00036582, No Iterations 2
DILUPBiCGStab:  Solving for Uy, Initial residual = 0.0273674, Final residual = 0.00144511, No Iterations 2
DILUPBiCGStab:  Solving for Uz, Initial residual = 0.0149719, Final residual = 0.000800748, No Iterations 2
GAMG:  Solving for p, Initial residual = 0.215254, Final residual = 0.00811723, No Iterations 2
[...]
DILUPBiCGStab:  Solving for Uy, Initial residual = 0.0139279, Final residual = 0.000804111, No Iterations 2
DILUPBiCGStab:  Solving for Uz, Initial residual = 0.0147658, Final residual = 0.000935297, No Iterations 2
GAMG:  Solving for p, Initial residual = 0.142799, Final residual = 0.00905336, No Iterations 2
time step continuity errors : sum local = 0.0142954, global = 0.00216693, cumulative = 0.0455186
ExecutionTime = 501.855 s  ClockTime = 502 s

Time = 467s

DILUPBiCGStab:  Solving for Ux, Initial residual = 0.0214901, Final residual = 0.00136635, No Iterations 2
DILUPBiCGStab:  Solving for Uy, Initial residual = 0.0139409, Final residual = 0.000804401, No Iterations 2
DILUPBiCGStab:  Solving for Uz, Initial residual = 0.0148146, Final residual = 0.000939556, No Iterations 2
GAMG:  Solving for p, Initial residual = 0.143329, Final residual = 0.00907069, No Iterations 2
time step continuity errors : sum local = 0.0148071, global = 0.0022135, cumulative = 0.0477321
ExecutionTime = 502.92 s  ClockTime = 503 s

Time = 468s

DILUPBiCGStab:  Solving for Ux, Initial residual = 0.0217103, Final residual = 0.00138091, No Iterations 2
DILUPBiCGStab:  Solving for Uy, Initial residual = 0.0139613, Final residual = 0.000805504, No Iterations 2
DILUPBiCGStab:  Solving for Uz, Initial residual = 0.014872, Final residual = 0.000944835, No Iterations 2
GAMG:  Solving for p, Initial residual = 0.143951, Final residual = 0.00905642, No Iterations 2
time step continuity errors : sum local = 0.0152783, global = 0.00225957, cumulative = 0.0499916
ExecutionTime = 503.98 s  ClockTime = 504 s

Time = 469s

DILUPBiCGStab:  Solving for Ux, Initial residual = 0.0219257, Final residual = 0.00139514, No Iterations 2
DILUPBiCGStab:  Solving for Uy, Initial residual = 0.01399, Final residual = 0.000807675, No Iterations 2
DILUPBiCGStab:  Solving for Uz, Initial residual = 0.0149307, Final residual = 0.000950636, No Iterations 2
GAMG:  Solving for p, Initial residual = 0.144628, Final residual = 0.00899492, No Iterations 2
time step continuity errors : sum local = 0.0156799, global = 0.00230192, cumulative = 0.0522936
ExecutionTime = 505.044 s  ClockTime = 505 s

Time = 470s

DILUPBiCGStab:  Solving for Ux, Initial residual = 0.0221324, Final residual = 0.00140804, No Iterations 2
DILUPBiCGStab:  Solving for Uy, Initial residual = 0.0140358, Final residual = 0.000810201, No Iterations 2
DILUPBiCGStab:  Solving for Uz, Initial residual = 0.0149807, Final residual = 0.000955894, No Iterations 2
GAMG:  Solving for p, Initial residual = 0.145361, Final residual = 0.00893953, No Iterations 2
time step continuity errors : sum local = 0.0160962, global = 0.00235994, cumulative = 0.0546535
ExecutionTime = 506.104 s  ClockTime = 506 s

Time = 471s

DILUPBiCGStab:  Solving for Ux, Initial residual = 0.0223309, Final residual = 0.00142059, No Iterations 2
DILUPBiCGStab:  Solving for Uy, Initial residual = 0.0140922, Final residual = 0.000813062, No Iterations 2
DILUPBiCGStab:  Solving for Uz, Initial residual = 0.015032, Final residual = 0.000961533, No Iterations 2
GAMG:  Solving for p, Initial residual = 0.146134, Final residual = 0.00875746, No Iterations 2
time step continuity errors : sum local = 0.0162795, global = 0.00234825, cumulative = 0.0570018
ExecutionTime = 507.165 s  ClockTime = 507 s

Time = 472s

DILUPBiCGStab:  Solving for Ux, Initial residual = 0.0224999, Final residual = 0.00143123, No Iterations 2
DILUPBiCGStab:  Solving for Uy, Initial residual = 0.0141573, Final residual = 0.000816458, No Iterations 2
DILUPBiCGStab:  Solving for Uz, Initial residual = 0.0150491, Final residual = 0.000963811, No Iterations 2
GAMG:  Solving for p, Initial residual = 0.146672, Final residual = 0.00864551, No Iterations 2
time step continuity errors : sum local = 0.0165779, global = 0.00239214, cumulative = 0.0593939
ExecutionTime = 508.225 s  ClockTime = 508 s

Time = 473s

DILUPBiCGStab:  Solving for Ux, Initial residual = 0.0226455, Final residual = 0.00144037, No Iterations 2
DILUPBiCGStab:  Solving for Uy, Initial residual = 0.0142215, Final residual = 0.000820102, No Iterations 2
DILUPBiCGStab:  Solving for Uz, Initial residual = 0.0150653, Final residual = 0.00096648, No Iterations 2
GAMG:  Solving for p, Initial residual = 0.147298, Final residual = 0.00849541, No Iterations 2
time step continuity errors : sum local = 0.0167919, global = 0.00240246, cumulative = 0.0617964
ExecutionTime = 509.293 s  ClockTime = 509 s

Time = 474s

DILUPBiCGStab:  Solving for Ux, Initial residual = 0.022765, Final residual = 0.00144799, No Iterations 2
DILUPBiCGStab:  Solving for Uy, Initial residual = 0.0142872, Final residual = 0.000824455, No Iterations 2
DILUPBiCGStab:  Solving for Uz, Initial residual = 0.0150813, Final residual = 0.00096921, No Iterations 2
GAMG:  Solving for p, Initial residual = 0.147989, Final residual = 0.0082952, No Iterations 2
time step continuity errors : sum local = 0.016888, global = 0.00237369, cumulative = 0.0641701
ExecutionTime = 510.351 s  ClockTime = 510 s

Time = 475s

DILUPBiCGStab:  Solving for Ux, Initial residual = 0.022846, Final residual = 0.00145356, No Iterations 2
DILUPBiCGStab:  Solving for Uy, Initial residual = 0.0143421, Final residual = 0.000828526, No Iterations 2
DILUPBiCGStab:  Solving for Uz, Initial residual = 0.0150824, Final residual = 0.00097111, No Iterations 2
GAMG:  Solving for p, Initial residual = 0.148546, Final residual = 0.00807812, No Iterations 2
time step continuity errors : sum local = 0.0169271, global = 0.00230037, cumulative = 0.0664704
ExecutionTime = 511.414 s  ClockTime = 511 s

Time = 476s

DILUPBiCGStab:  Solving for Ux, Initial residual = 0.0228883, Final residual = 0.00145559, No Iterations 2
DILUPBiCGStab:  Solving for Uy, Initial residual = 0.0143914, Final residual = 0.000831668, No Iterations 2
DILUPBiCGStab:  Solving for Uz, Initial residual = 0.0150607, Final residual = 0.000970983, No Iterations 2
GAMG:  Solving for p, Initial residual = 0.149017, Final residual = 0.0147875, No Iterations 1
time step continuity errors : sum local = 0.0318623, global = 0.00161975, cumulative = 0.0680902
ExecutionTime = 512.412 s  ClockTime = 512 s

Time = 477s

DILUPBiCGStab:  Solving for Ux, Initial residual = 0.0230745, Final residual = 0.00144133, No Iterations 2
DILUPBiCGStab:  Solving for Uy, Initial residual = 0.014362, Final residual = 0.000882799, No Iterations 2
DILUPBiCGStab:  Solving for Uz, Initial residual = 0.0152623, Final residual = 0.000949772, No Iterations 2
GAMG:  Solving for p, Initial residual = 0.148362, Final residual = 0.00876851, No Iterations 2
time step continuity errors : sum local = 0.0193386, global = 0.00164647, cumulative = 0.0697366
ExecutionTime = 513.476 s  ClockTime = 513 s

Time = 478s

DILUPBiCGStab:  Solving for Ux, Initial residual = 0.0228996, Final residual = 0.001402, No Iterations 2
DILUPBiCGStab:  Solving for Uy, Initial residual = 0.0146156, Final residual = 0.000860246, No Iterations 2
DILUPBiCGStab:  Solving for Uz, Initial residual = 0.0151117, Final residual = 0.000915189, No Iterations 2
GAMG:  Solving for p, Initial residual = 0.149738, Final residual = 0.00884147, No Iterations 2
time step continuity errors : sum local = 0.0199872, global = 0.0012124, cumulative = 0.070949
ExecutionTime = 514.535 s  ClockTime = 514 s

Time = 479s

DILUPBiCGStab:  Solving for Ux, Initial residual = 0.0227007, Final residual = 0.00141707, No Iterations 2
DILUPBiCGStab:  Solving for Uy, Initial residual = 0.0146399, Final residual = 0.000841243, No Iterations 2
DILUPBiCGStab:  Solving for Uz, Initial residual = 0.0151424, Final residual = 0.00105507, No Iterations 2
GAMG:  Solving for p, Initial residual = 0.150895, Final residual = 0.0086567, No Iterations 2
time step continuity errors : sum local = 0.0200632, global = 0.00104745, cumulative = 0.0719965
ExecutionTime = 515.6 s  ClockTime = 515 s

Time = 480s

DILUPBiCGStab:  Solving for Ux, Initial residual = 0.02256, Final residual = 0.00142251, No Iterations 2
DILUPBiCGStab:  Solving for Uy, Initial residual = 0.0146707, Final residual = 0.000876664, No Iterations 2
DILUPBiCGStab:  Solving for Uz, Initial residual = 0.0152249, Final residual = 0.00108351, No Iterations 2
GAMG:  Solving for p, Initial residual = 0.151829, Final residual = 0.00832111, No Iterations 2
time step continuity errors : sum local = 0.0197672, global = 0.00110793, cumulative = 0.0731044
ExecutionTime = 516.658 s  ClockTime = 516 s

Time = 481s

DILUPBiCGStab:  Solving for Ux, Initial residual = 0.0224091, Final residual = 0.00142696, No Iterations 2
DILUPBiCGStab:  Solving for Uy, Initial residual = 0.0146919, Final residual = 0.00105347, No Iterations 2
DILUPBiCGStab:  Solving for Uz, Initial residual = 0.0153787, Final residual = 0.00101741, No Iterations 2
GAMG:  Solving for p, Initial residual = 0.152647, Final residual = 0.0150675, No Iterations 1
time step continuity errors : sum local = 0.036694, global = 0.00142512, cumulative = 0.0745296
ExecutionTime = 517.654 s  ClockTime = 517 s

Time = 482s

DILUPBiCGStab:  Solving for Ux, Initial residual = 0.022459, Final residual = 0.00139114, No Iterations 2
DILUPBiCGStab:  Solving for Uy, Initial residual = 0.0144576, Final residual = 0.00093914, No Iterations 2
DILUPBiCGStab:  Solving for Uz, Initial residual = 0.0154647, Final residual = 0.000959307, No Iterations 2
GAMG:  Solving for p, Initial residual = 0.151832, Final residual = 0.00892793, No Iterations 2
time step continuity errors : sum local = 0.0222394, global = 0.00124735, cumulative = 0.0757769
ExecutionTime = 518.715 s  ClockTime = 518 s

Time = 483s

DILUPBiCGStab:  Solving for Ux, Initial residual = 0.0221889, Final residual = 0.00135562, No Iterations 2
DILUPBiCGStab:  Solving for Uy, Initial residual = 0.0147107, Final residual = 0.00086886, No Iterations 2
DILUPBiCGStab:  Solving for Uz, Initial residual = 0.0153243, Final residual = 0.000931267, No Iterations 2
GAMG:  Solving for p, Initial residual = 0.152993, Final residual = 0.00900292, No Iterations 2
time step continuity errors : sum local = 0.0229994, global = 0.000821331, cumulative = 0.0765982
ExecutionTime = 519.775 s  ClockTime = 519 s

Time = 484s

DILUPBiCGStab:  Solving for Ux, Initial residual = 0.0219266, Final residual = 0.00136301, No Iterations 2
DILUPBiCGStab:  Solving for Uy, Initial residual = 0.0147995, Final residual = 0.000861971, No Iterations 2
DILUPBiCGStab:  Solving for Uz, Initial residual = 0.0153385, Final residual = 0.00109135, No Iterations 2
GAMG:  Solving for p, Initial residual = 0.153913, Final residual = 0.00901489, No Iterations 2
time step continuity errors : sum local = 0.0236371, global = 0.000640372, cumulative = 0.0772386
ExecutionTime = 520.837 s  ClockTime = 521 s

Time = 485s

DILUPBiCGStab:  Solving for Ux, Initial residual = 0.0217595, Final residual = 0.0013718, No Iterations 2
DILUPBiCGStab:  Solving for Uy, Initial residual = 0.0149385, Final residual = 0.000878806, No Iterations 2
DILUPBiCGStab:  Solving for Uz, Initial residual = 0.0154363, Final residual = 0.00114539, No Iterations 2
GAMG:  Solving for p, Initial residual = 0.154865, Final residual = 0.00889828, No Iterations 2
time step continuity errors : sum local = 0.0239551, global = 0.000603535, cumulative = 0.0778421
ExecutionTime = 521.9 s  ClockTime = 522 s

Time = 486s

DILUPBiCGStab:  Solving for Ux, Initial residual = 0.0216199, Final residual = 0.0013695, No Iterations 2
DILUPBiCGStab:  Solving for Uy, Initial residual = 0.0149669, Final residual = 0.00101116, No Iterations 2
DILUPBiCGStab:  Solving for Uz, Initial residual = 0.0154901, Final residual = 0.00107584, No Iterations 2
GAMG:  Solving for p, Initial residual = 0.156096, Final residual = 0.0154456, No Iterations 1
time step continuity errors : sum local = 0.0427103, global = 0.00103637, cumulative = 0.0788785
ExecutionTime = 522.899 s  ClockTime = 523 s

Time = 487s

DILUPBiCGStab:  Solving for Ux, Initial residual = 0.0216869, Final residual = 0.00135365, No Iterations 2
DILUPBiCGStab:  Solving for Uy, Initial residual = 0.0146917, Final residual = 0.00104639, No Iterations 2
DILUPBiCGStab:  Solving for Uz, Initial residual = 0.0155132, Final residual = 0.00097118, No Iterations 2
GAMG:  Solving for p, Initial residual = 0.155081, Final residual = 0.00955359, No Iterations 2
time step continuity errors : sum local = 0.0270577, global = 0.000594857, cumulative = 0.0794734
ExecutionTime = 523.963 s  ClockTime = 524 s

Time = 488s

DILUPBiCGStab:  Solving for Ux, Initial residual = 0.0213911, Final residual = 0.00132302, No Iterations 2
DILUPBiCGStab:  Solving for Uy, Initial residual = 0.0148118, Final residual = 0.000870257, No Iterations 2
DILUPBiCGStab:  Solving for Uz, Initial residual = 0.0153849, Final residual = 0.000946919, No Iterations 2
GAMG:  Solving for p, Initial residual = 0.156301, Final residual = 0.00970643, No Iterations 2
time step continuity errors : sum local = 0.0282115, global = 6.52328e-05, cumulative = 0.0795386
ExecutionTime = 525.019 s  ClockTime = 525 s

Time = 489s

DILUPBiCGStab:  Solving for Ux, Initial residual = 0.0210606, Final residual = 0.00132568, No Iterations 2
DILUPBiCGStab:  Solving for Uy, Initial residual = 0.0147979, Final residual = 0.000865188, No Iterations 2
DILUPBiCGStab:  Solving for Uz, Initial residual = 0.0154911, Final residual = 0.00112627, No Iterations 2
GAMG:  Solving for p, Initial residual = 0.15705, Final residual = 0.00966721, No Iterations 2
time step continuity errors : sum local = 0.0288282, global = -0.000211366, cumulative = 0.0793272
ExecutionTime = 526.109 s  ClockTime = 526 s

Time = 490s

DILUPBiCGStab:  Solving for Ux, Initial residual = 0.0207634, Final residual = 0.00132259, No Iterations 2
DILUPBiCGStab:  Solving for Uy, Initial residual = 0.0149214, Final residual = 0.000883066, No Iterations 2
DILUPBiCGStab:  Solving for Uz, Initial residual = 0.0156878, Final residual = 0.00117122, No Iterations 2
GAMG:  Solving for p, Initial residual = 0.157939, Final residual = 0.0093825, No Iterations 2
time step continuity errors : sum local = 0.0286836, global = -0.000297564, cumulative = 0.0790297
ExecutionTime = 527.169 s  ClockTime = 527 s

Time = 491s

DILUPBiCGStab:  Solving for Ux, Initial residual = 0.0204799, Final residual = 0.00130827, No Iterations 2
DILUPBiCGStab:  Solving for Uy, Initial residual = 0.0149665, Final residual = 0.00099803, No Iterations 2
DILUPBiCGStab:  Solving for Uz, Initial residual = 0.0158069, Final residual = 0.00109962, No Iterations 2
GAMG:  Solving for p, Initial residual = 0.158581, Final residual = 0.0155364, No Iterations 1
time step continuity errors : sum local = 0.0486859, global = -0.000575007, cumulative = 0.0784547
ExecutionTime = 528.167 s  ClockTime = 528 s

Time = 492s

DILUPBiCGStab:  Solving for Ux, Initial residual = 0.0205318, Final residual = 0.00128423, No Iterations 2
DILUPBiCGStab:  Solving for Uy, Initial residual = 0.014726, Final residual = 0.00102186, No Iterations 2
DILUPBiCGStab:  Solving for Uz, Initial residual = 0.0157816, Final residual = 0.000993831, No Iterations 2
GAMG:  Solving for p, Initial residual = 0.156447, Final residual = 0.00942398, No Iterations 2
time step continuity errors : sum local = 0.0302573, global = -0.000400694, cumulative = 0.078054
ExecutionTime = 529.239 s  ClockTime = 529 s

Time = 493s

DILUPBiCGStab:  Solving for Ux, Initial residual = 0.0201501, Final residual = 0.00124779, No Iterations 2
DILUPBiCGStab:  Solving for Uy, Initial residual = 0.0149071, Final residual = 0.000877908, No Iterations 2
DILUPBiCGStab:  Solving for Uz, Initial residual = 0.0155917, Final residual = 0.000969589, No Iterations 2
GAMG:  Solving for p, Initial residual = 0.157466, Final residual = 0.00956141, No Iterations 2
time step continuity errors : sum local = 0.0314679, global = -0.000731812, cumulative = 0.0773222
ExecutionTime = 530.302 s  ClockTime = 530 s

Time = 494s

DILUPBiCGStab:  Solving for Ux, Initial residual = 0.0197934, Final residual = 0.00124405, No Iterations 2
DILUPBiCGStab:  Solving for Uy, Initial residual = 0.0149251, Final residual = 0.000872533, No Iterations 2
DILUPBiCGStab:  Solving for Uz, Initial residual = 0.015638, Final residual = 0.00115069, No Iterations 2
GAMG:  Solving for p, Initial residual = 0.158242, Final residual = 0.00943139, No Iterations 2
time step continuity errors : sum local = 0.0318407, global = -0.000820579, cumulative = 0.0765016
ExecutionTime = 531.361 s  ClockTime = 531 s

Time = 495s

DILUPBiCGStab:  Solving for Ux, Initial residual = 0.019509, Final residual = 0.00123883, No Iterations 2
DILUPBiCGStab:  Solving for Uy, Initial residual = 0.0150379, Final residual = 0.000894777, No Iterations 2
DILUPBiCGStab:  Solving for Uz, Initial residual = 0.0157285, Final residual = 0.00118274, No Iterations 2
GAMG:  Solving for p, Initial residual = 0.159009, Final residual = 0.00902623, No Iterations 2
time step continuity errors : sum local = 0.0312538, global = -0.000584765, cumulative = 0.0759168
ExecutionTime = 532.419 s  ClockTime = 532 s

Time = 496s

DILUPBiCGStab:  Solving for Ux, Initial residual = 0.0193003, Final residual = 0.00122768, No Iterations 2
DILUPBiCGStab:  Solving for Uy, Initial residual = 0.0150621, Final residual = 0.0010213, No Iterations 2
DILUPBiCGStab:  Solving for Uz, Initial residual = 0.0157464, Final residual = 0.00110202, No Iterations 2
GAMG:  Solving for p, Initial residual = 0.15925, Final residual = 0.0156361, No Iterations 1
time step continuity errors : sum local = 0.0555804, global = 0.000374125, cumulative = 0.0762909
ExecutionTime = 533.413 s  ClockTime = 533 s

Time = 497s

DILUPBiCGStab:  Solving for Ux, Initial residual = 0.0193832, Final residual = 0.00120681, No Iterations 2
DILUPBiCGStab:  Solving for Uy, Initial residual = 0.0147987, Final residual = 0.00103781, No Iterations 2
DILUPBiCGStab:  Solving for Uz, Initial residual = 0.0156671, Final residual = 0.000987791, No Iterations 2
GAMG:  Solving for p, Initial residual = 0.157006, Final residual = 0.00919234, No Iterations 2
time step continuity errors : sum local = 0.0335111, global = 0.000342865, cumulative = 0.0766338
ExecutionTime = 534.477 s  ClockTime = 534 s

Time = 498s

DILUPBiCGStab:  Solving for Ux, Initial residual = 0.0191685, Final residual = 0.00118261, No Iterations 2
DILUPBiCGStab:  Solving for Uy, Initial residual = 0.0149797, Final residual = 0.000881153, No Iterations 2
DILUPBiCGStab:  Solving for Uz, Initial residual = 0.0154327, Final residual = 0.000957144, No Iterations 2
GAMG:  Solving for p, Initial residual = 0.157399, Final residual = 0.00930022, No Iterations 2
time step continuity errors : sum local = 0.0348444, global = 0.000582987, cumulative = 0.0772168
ExecutionTime = 535.536 s  ClockTime = 535 s

Time = 499s

DILUPBiCGStab:  Solving for Ux, Initial residual = 0.0190038, Final residual = 0.00119421, No Iterations 2
DILUPBiCGStab:  Solving for Uy, Initial residual = 0.0149785, Final residual = 0.00087733, No Iterations 2
DILUPBiCGStab:  Solving for Uz, Initial residual = 0.0154566, Final residual = 0.00111373, No Iterations 2
GAMG:  Solving for p, Initial residual = 0.157134, Final residual = 0.00918152, No Iterations 2
time step continuity errors : sum local = 0.0353883, global = 0.00121842, cumulative = 0.0784352
ExecutionTime = 536.602 s  ClockTime = 536 s

Time = 500s

DILUPBiCGStab:  Solving for Ux, Initial residual = 0.0189244, Final residual = 0.00120474, No Iterations 2
DILUPBiCGStab:  Solving for Uy, Initial residual = 0.0150765, Final residual = 0.000906331, No Iterations 2
DILUPBiCGStab:  Solving for Uz, Initial residual = 0.0154888, Final residual = 0.00114273, No Iterations 2
GAMG:  Solving for p, Initial residual = 0.157115, Final residual = 0.00893745, No Iterations 2
time step continuity errors : sum local = 0.0354174, global = 0.00237355, cumulative = 0.0808088
ExecutionTime = 538.601 s  ClockTime = 538 s

End

