/*---------------------------------------------------------------------------*\
  =========                 |
  \\      /  F ield         | OpenFOAM: The Open Source CFD Toolbox
   \\    /   O peration     | Website:  https://openfoam.org
    \\  /    A nd           | Version:  11
     \\/     M anipulation  |
\*---------------------------------------------------------------------------*/
Build  : 11
Exec   : foamRun
Date   : Nov 01 2024
Time   : 03:04:09
Host   : "skynet-linux"
PID    : 33186
I/O    : uncollated
Case   : /home/humberto/casesXCALibre/BFS_3D_5mm_OF11
nProcs : 1
sigFpe : Enabling floating point exception trapping (FOAM_SIGFPE).
fileModificationChecking : Monitoring run-time modified files using timeStampMaster (fileModificationSkew 10)
allowSystemOperations : Allowing user-supplied system call operations

// * * * * * * * * * * * * * * * * * * * * * * * * * * * * * * * * * * * * * //
Create time

Create mesh for time = 0

Selecting solver incompressibleFluid
Selecting viscosity model constant
Selecting turbulence model type laminar
Selecting laminar stress model Stokes
No MRF models present


SIMPLE: Convergence criteria found
        p: tolerance 1e-07
        U: tolerance 1e-07
        "(k|epsilon|omega|f|v2)": tolerance 1e-07


SIMPLE: Operating solver in steady-state mode with 1 outer corrector
SIMPLE: Operating solver in SIMPLE mode



Starting time loop

Time = 1s

DILUPBiCGStab:  Solving for Ux, Initial residual = 1, Final residual = 0.0711888, No Iterations 3
DILUPBiCGStab:  Solving for Uy, Initial residual = 1, Final residual = 0.0792688, No Iterations 1
DILUPBiCGStab:  Solving for Uz, Initial residual = 1, Final residual = 0.0904606, No Iterations 1
DICPCG:  Solving for p, Initial residual = 1, Final residual = 0.0999097, No Iterations 368
time step continuity errors : sum local = 2.81825e-05, global = 1.5942e-07, cumulative = 1.5942e-07
ExecutionTime = 10.3687 s  ClockTime = 11 s

Time = 2s

DILUPBiCGStab:  Solving for Ux, Initial residual = 0.878766, Final residual = 0.0386904, No Iterations 2
DILUPBiCGStab:  Solving for Uy, Initial residual = 0.44807, Final residual = 0.0335042, No Iterations 2
DILUPBiCGStab:  Solving for Uz, Initial residual = 0.380698, Final residual = 0.030101, No Iterations 1
DICPCG:  Solving for p, Initial residual = 0.210228, Final residual = 0.0209555, No Iterations 242
time step continuity errors : sum local = 0.00180199, global = -1.94444e-05, cumulative = -1.9285e-05
ExecutionTime = 16.7901 s  ClockTime = 17 s

Time = 3s

DILUPBiCGStab:  Solving for Ux, Initial residual = 0.266158, Final residual = 0.0208671, No Iterations 2
DILUPBiCGStab:  Solving for Uy, Initial residual = 0.390022, Final residual = 0.0271753, No Iterations 2
DILUPBiCGStab:  Solving for Uz, Initial residual = 0.504544, Final residual = 0.0347493, No Iterations 1
DICPCG:  Solving for p, Initial residual = 0.297552, Final residual = 0.0287525, No Iterations 335
time step continuity errors : sum local = 0.000519347, global = 5.22249e-06, cumulative = -1.40625e-05
ExecutionTime = 25.2972 s  ClockTime = 25 s

Time = 4s

DILUPBiCGStab:  Solving for Ux, Initial residual = 0.513625, Final residual = 0.0255243, No Iterations 2
DILUPBiCGStab:  Solving for Uy, Initial residual = 0.32924, Final residual = 0.0315916, No Iterations 1
DILUPBiCGStab:  Solving for Uz, Initial residual = 0.389697, Final residual = 0.0295238, No Iterations 1
DICPCG:  Solving for p, Initial residual = 0.263965, Final residual = 0.0259465, No Iterations 40
time step continuity errors : sum local = 0.00134668, global = 4.5854e-06, cumulative = -9.47707e-06
ExecutionTime = 27.0364 s  ClockTime = 27 s

Time = 5s

DILUPBiCGStab:  Solving for Ux, Initial residual = 0.619138, Final residual = 0.0272469, No Iterations 2
DILUPBiCGStab:  Solving for Uy, Initial residual = 0.230164, Final residual = 0.0209746, No Iterations 2
DILUPBiCGStab:  Solving for Uz, Initial residual = 0.16601, Final residual = 0.0165087, No Iterations 1
DICPCG:  Solving for p, Initial residual = 0.266492, Final residual = 0.0259099, No Iterations 201
time step continuity errors : sum local = 0.00134999, global = 2.53458e-05, cumulative = 1.58687e-05
ExecutionTime = 32.4594 s  ClockTime = 33 s

Time = 6s

DILUPBiCGStab:  Solving for Ux, Initial residual = 0.30029, Final residual = 0.0220877, No Iterations 2
DILUPBiCGStab:  Solving for Uy, Initial residual = 0.43616, Final residual = 0.0357692, No Iterations 2
DILUPBiCGStab:  Solving for Uz, Initial residual = 0.514532, Final residual = 0.0430614, No Iterations 1
DICPCG:  Solving for p, Initial residual = 0.615092, Final residual = 0.060331, No Iterations 336
time step continuity errors : sum local = 0.000654593, global = -8.12893e-06, cumulative = 7.73982e-06
ExecutionTime = 41.0042 s  ClockTime = 41 s

Time = 7s

DILUPBiCGStab:  Solving for Ux, Initial residual = 0.658851, Final residual = 0.0354658, No Iterations 2
DILUPBiCGStab:  Solving for Uy, Initial residual = 0.299942, Final residual = 0.0193331, No Iterations 2
DILUPBiCGStab:  Solving for Uz, Initial residual = 0.369791, Final residual = 0.0346026, No Iterations 1
DICPCG:  Solving for p, Initial residual = 0.292603, Final residual = 0.0290828, No Iterations 115
time step continuity errors : sum local = 0.000857976, global = -8.00295e-05, cumulative = -7.22897e-05
ExecutionTime = 44.4718 s  ClockTime = 45 s

Time = 8s

DILUPBiCGStab:  Solving for Ux, Initial residual = 0.675763, Final residual = 0.034166, No Iterations 2
DILUPBiCGStab:  Solving for Uy, Initial residual = 0.244762, Final residual = 0.0174815, No Iterations 2
DILUPBiCGStab:  Solving for Uz, Initial residual = 0.208961, Final residual = 0.0102333, No Iterations 2
DICPCG:  Solving for p, Initial residual = 0.302106, Final residual = 0.0296223, No Iterations 188
time step continuity errors : sum local = 0.000805644, global = 4.98178e-06, cumulative = -6.73079e-05
ExecutionTime = 49.649 s  ClockTime = 50 s

Time = 9s

DILUPBiCGStab:  Solving for Ux, Initial residual = 0.337779, Final residual = 0.0186395, No Iterations 2
DILUPBiCGStab:  Solving for Uy, Initial residual = 0.359431, Final residual = 0.0298075, No Iterations 2
DILUPBiCGStab:  Solving for Uz, Initial residual = 0.422131, Final residual = 0.0394808, No Iterations 1
DICPCG:  Solving for p, Initial residual = 0.362816, Final residual = 0.0360876, No Iterations 280
time step continuity errors : sum local = 0.000621821, global = 1.21695e-05, cumulative = -5.51385e-05
ExecutionTime = 56.9244 s  ClockTime = 57 s

Time = 10s

DILUPBiCGStab:  Solving for Ux, Initial residual = 0.413903, Final residual = 0.019109, No Iterations 2
DILUPBiCGStab:  Solving for Uy, Initial residual = 0.21368, Final residual = 0.0135436, No Iterations 2
DILUPBiCGStab:  Solving for Uz, Initial residual = 0.266818, Final residual = 0.013167, No Iterations 2
DICPCG:  Solving for p, Initial residual = 0.260455, Final residual = 0.0259112, No Iterations 318
time step continuity errors : sum local = 0.000836448, global = 8.1972e-06, cumulative = -4.69413e-05
ExecutionTime = 65.0192 s  ClockTime = 65 s

Time = 11s

DILUPBiCGStab:  Solving for Ux, Initial residual = 0.29169, Final residual = 0.0152422, No Iterations 2
DILUPBiCGStab:  Solving for Uy, Initial residual = 0.243662, Final residual = 0.0194589, No Iterations 2
DILUPBiCGStab:  Solving for Uz, Initial residual = 0.259249, Final residual = 0.0168913, No Iterations 2
DICPCG:  Solving for p, Initial residual = 0.305039, Final residual = 0.0299665, No Iterations 224
time step continuity errors : sum local = 0.000569374, global = 2.86616e-05, cumulative = -1.82796e-05
ExecutionTime = 70.9956 s  ClockTime = 71 s

Time = 12s

DILUPBiCGStab:  Solving for Ux, Initial residual = 0.443682, Final residual = 0.0223477, No Iterations 2
DILUPBiCGStab:  Solving for Uy, Initial residual = 0.334892, Final residual = 0.0270952, No Iterations 2
DILUPBiCGStab:  Solving for Uz, Initial residual = 0.39971, Final residual = 0.0232597, No Iterations 2
DICPCG:  Solving for p, Initial residual = 0.378738, Final residual = 0.0378489, No Iterations 100
time step continuity errors : sum local = 0.00071329, global = 3.25163e-05, cumulative = 1.42366e-05
ExecutionTime = 74.1823 s  ClockTime = 74 s

Time = 13s

DILUPBiCGStab:  Solving for Ux, Initial residual = 0.542506, Final residual = 0.0364358, No Iterations 2
DILUPBiCGStab:  Solving for Uy, Initial residual = 0.184304, Final residual = 0.0131717, No Iterations 2
DILUPBiCGStab:  Solving for Uz, Initial residual = 0.230954, Final residual = 0.0116645, No Iterations 2
DICPCG:  Solving for p, Initial residual = 0.343217, Final residual = 0.0333121, No Iterations 128
time step continuity errors : sum local = 0.00055481, global = -3.87286e-05, cumulative = -2.4492e-05
ExecutionTime = 77.9792 s  ClockTime = 78 s

Time = 14s

DILUPBiCGStab:  Solving for Ux, Initial residual = 0.589657, Final residual = 0.0316406, No Iterations 2
DILUPBiCGStab:  Solving for Uy, Initial residual = 0.239742, Final residual = 0.0226568, No Iterations 2
DILUPBiCGStab:  Solving for Uz, Initial residual = 0.23888, Final residual = 0.0131785, No Iterations 2
DICPCG:  Solving for p, Initial residual = 0.338484, Final residual = 0.0330847, No Iterations 241
time step continuity errors : sum local = 0.000548126, global = 7.34137e-06, cumulative = -1.71506e-05
ExecutionTime = 84.3459 s  ClockTime = 85 s

Time = 15s

DILUPBiCGStab:  Solving for Ux, Initial residual = 0.262408, Final residual = 0.0152648, No Iterations 2
DILUPBiCGStab:  Solving for Uy, Initial residual = 0.279462, Final residual = 0.0211234, No Iterations 2
DILUPBiCGStab:  Solving for Uz, Initial residual = 0.356091, Final residual = 0.0214866, No Iterations 2
DICPCG:  Solving for p, Initial residual = 0.421234, Final residual = 0.0407618, No Iterations 327
time step continuity errors : sum local = 0.00050167, global = 3.71717e-07, cumulative = -1.67789e-05
ExecutionTime = 92.7148 s  ClockTime = 93 s

Time = 16s

DILUPBiCGStab:  Solving for Ux, Initial residual = 0.292362, Final residual = 0.0162146, No Iterations 2
DILUPBiCGStab:  Solving for Uy, Initial residual = 0.21398, Final residual = 0.0157312, No Iterations 2
DILUPBiCGStab:  Solving for Uz, Initial residual = 0.247675, Final residual = 0.012399, No Iterations 2
DICPCG:  Solving for p, Initial residual = 0.309603, Final residual = 0.0307396, No Iterations 135
time step continuity errors : sum local = 0.000605702, global = 5.88761e-05, cumulative = 4.20972e-05
ExecutionTime = 96.673 s  ClockTime = 97 s

Time = 17s

DILUPBiCGStab:  Solving for Ux, Initial residual = 0.280264, Final residual = 0.0152669, No Iterations 2
DILUPBiCGStab:  Solving for Uy, Initial residual = 0.196497, Final residual = 0.0136911, No Iterations 2
DILUPBiCGStab:  Solving for Uz, Initial residual = 0.20647, Final residual = 0.0122212, No Iterations 2
DICPCG:  Solving for p, Initial residual = 0.312747, Final residual = 0.0302094, No Iterations 244
time step continuity errors : sum local = 0.000516488, global = -4.76931e-06, cumulative = 3.73279e-05
ExecutionTime = 103.11 s  ClockTime = 103 s

Time = 18s

DILUPBiCGStab:  Solving for Ux, Initial residual = 0.537201, Final residual = 0.0286806, No Iterations 2
DILUPBiCGStab:  Solving for Uy, Initial residual = 0.297147, Final residual = 0.0251377, No Iterations 2
DILUPBiCGStab:  Solving for Uz, Initial residual = 0.36936, Final residual = 0.021455, No Iterations 2
DICPCG:  Solving for p, Initial residual = 0.335383, Final residual = 0.0324632, No Iterations 125
time step continuity errors : sum local = 0.000613498, global = 3.83696e-05, cumulative = 7.56975e-05
ExecutionTime = 106.856 s  ClockTime = 107 s

Time = 19s

DILUPBiCGStab:  Solving for Ux, Initial residual = 0.665864, Final residual = 0.03763, No Iterations 2
DILUPBiCGStab:  Solving for Uy, Initial residual = 0.176556, Final residual = 0.0119951, No Iterations 2
DILUPBiCGStab:  Solving for Uz, Initial residual = 0.223273, Final residual = 0.0154003, No Iterations 2
DICPCG:  Solving for p, Initial residual = 0.339873, Final residual = 0.0338905, No Iterations 129
time step continuity errors : sum local = 0.000570247, global = -4.52739e-05, cumulative = 3.04236e-05
ExecutionTime = 110.683 s  ClockTime = 111 s

Time = 20s

DILUPBiCGStab:  Solving for Ux, Initial residual = 0.603901, Final residual = 0.0304186, No Iterations 2
DILUPBiCGStab:  Solving for Uy, Initial residual = 0.177196, Final residual = 0.013454, No Iterations 2
DILUPBiCGStab:  Solving for Uz, Initial residual = 0.227689, Final residual = 0.0135093, No Iterations 2
DICPCG:  Solving for p, Initial residual = 0.328519, Final residual = 0.0318779, No Iterations 309
time step continuity errors : sum local = 0.000531763, global = -2.79128e-06, cumulative = 2.76323e-05
ExecutionTime = 118.591 s  ClockTime = 119 s

Time = 21s

DILUPBiCGStab:  Solving for Ux, Initial residual = 0.299615, Final residual = 0.0162508, No Iterations 2
DILUPBiCGStab:  Solving for Uy, Initial residual = 0.244925, Final residual = 0.0187366, No Iterations 2
DILUPBiCGStab:  Solving for Uz, Initial residual = 0.341423, Final residual = 0.0209331, No Iterations 2
DICPCG:  Solving for p, Initial residual = 0.38658, Final residual = 0.0383971, No Iterations 128
time step continuity errors : sum local = 0.000487003, global = -6.85012e-05, cumulative = -4.08689e-05
ExecutionTime = 122.417 s  ClockTime = 123 s

Time = 22s

DILUPBiCGStab:  Solving for Ux, Initial residual = 0.257485, Final residual = 0.0130531, No Iterations 2
DILUPBiCGStab:  Solving for Uy, Initial residual = 0.183267, Final residual = 0.0130663, No Iterations 2
DILUPBiCGStab:  Solving for Uz, Initial residual = 0.220588, Final residual = 0.0143311, No Iterations 2
DICPCG:  Solving for p, Initial residual = 0.37472, Final residual = 0.0370472, No Iterations 123
time step continuity errors : sum local = 0.000501124, global = 2.18053e-05, cumulative = -1.90636e-05
ExecutionTime = 126.097 s  ClockTime = 126 s

Time = 23s

DILUPBiCGStab:  Solving for Ux, Initial residual = 0.240934, Final residual = 0.0159007, No Iterations 2
DILUPBiCGStab:  Solving for Uy, Initial residual = 0.154913, Final residual = 0.0104049, No Iterations 2
DILUPBiCGStab:  Solving for Uz, Initial residual = 0.185615, Final residual = 0.00922761, No Iterations 2
DICPCG:  Solving for p, Initial residual = 0.37121, Final residual = 0.0371118, No Iterations 250
time step continuity errors : sum local = 0.000439602, global = 1.38438e-05, cumulative = -5.2198e-06
ExecutionTime = 132.697 s  ClockTime = 133 s

Time = 24s

DILUPBiCGStab:  Solving for Ux, Initial residual = 0.304175, Final residual = 0.0177829, No Iterations 2
DILUPBiCGStab:  Solving for Uy, Initial residual = 0.209383, Final residual = 0.0169253, No Iterations 2
DILUPBiCGStab:  Solving for Uz, Initial residual = 0.284722, Final residual = 0.0181033, No Iterations 2
DICPCG:  Solving for p, Initial residual = 0.442678, Final residual = 0.0430075, No Iterations 132
time step continuity errors : sum local = 0.000394733, global = 4.078e-05, cumulative = 3.55603e-05
ExecutionTime = 136.616 s  ClockTime = 137 s

Time = 25s

DILUPBiCGStab:  Solving for Ux, Initial residual = 0.326887, Final residual = 0.0185248, No Iterations 2
DILUPBiCGStab:  Solving for Uy, Initial residual = 0.145145, Final residual = 0.00989318, No Iterations 2
DILUPBiCGStab:  Solving for Uz, Initial residual = 0.188125, Final residual = 0.0121324, No Iterations 2
DICPCG:  Solving for p, Initial residual = 0.433786, Final residual = 0.0422119, No Iterations 63
time step continuity errors : sum local = 0.000385557, global = 3.18325e-06, cumulative = 3.87435e-05
ExecutionTime = 138.941 s  ClockTime = 139 s

Time = 26s

DILUPBiCGStab:  Solving for Ux, Initial residual = 0.282045, Final residual = 0.0164412, No Iterations 2
DILUPBiCGStab:  Solving for Uy, Initial residual = 0.124001, Final residual = 0.00891502, No Iterations 2
DILUPBiCGStab:  Solving for Uz, Initial residual = 0.175812, Final residual = 0.0129392, No Iterations 2
DICPCG:  Solving for p, Initial residual = 0.375405, Final residual = 0.0361491, No Iterations 95
time step continuity errors : sum local = 0.000318709, global = -2.52684e-05, cumulative = 1.34751e-05
ExecutionTime = 142.001 s  ClockTime = 142 s

Time = 27s

DILUPBiCGStab:  Solving for Ux, Initial residual = 0.312561, Final residual = 0.0175923, No Iterations 2
DILUPBiCGStab:  Solving for Uy, Initial residual = 0.130754, Final residual = 0.00953278, No Iterations 2
DILUPBiCGStab:  Solving for Uz, Initial residual = 0.176862, Final residual = 0.012234, No Iterations 2
DICPCG:  Solving for p, Initial residual = 0.359079, Final residual = 0.0349077, No Iterations 211
time step continuity errors : sum local = 0.000321331, global = -9.68347e-06, cumulative = 3.7916e-06
ExecutionTime = 147.719 s  ClockTime = 148 s

Time = 28s

DILUPBiCGStab:  Solving for Ux, Initial residual = 0.170627, Final residual = 0.00984189, No Iterations 2
DILUPBiCGStab:  Solving for Uy, Initial residual = 0.133437, Final residual = 0.00963795, No Iterations 2
DILUPBiCGStab:  Solving for Uz, Initial residual = 0.202505, Final residual = 0.0146124, No Iterations 2
DICPCG:  Solving for p, Initial residual = 0.470948, Final residual = 0.0452965, No Iterations 62
time step continuity errors : sum local = 0.000314551, global = -2.32276e-05, cumulative = -1.9436e-05
ExecutionTime = 150.024 s  ClockTime = 150 s

Time = 29s

DILUPBiCGStab:  Solving for Ux, Initial residual = 0.141921, Final residual = 0.00897814, No Iterations 2
DILUPBiCGStab:  Solving for Uy, Initial residual = 0.116739, Final residual = 0.00821094, No Iterations 2
DILUPBiCGStab:  Solving for Uz, Initial residual = 0.1469, Final residual = 0.00988693, No Iterations 2
DICPCG:  Solving for p, Initial residual = 0.437953, Final residual = 0.0433055, No Iterations 92
time step continuity errors : sum local = 0.000293254, global = 1.634e-05, cumulative = -3.09599e-06
ExecutionTime = 153.018 s  ClockTime = 153 s

Time = 30s

DILUPBiCGStab:  Solving for Ux, Initial residual = 0.165273, Final residual = 0.0101155, No Iterations 2
DILUPBiCGStab:  Solving for Uy, Initial residual = 0.111098, Final residual = 0.00800086, No Iterations 2
DILUPBiCGStab:  Solving for Uz, Initial residual = 0.145902, Final residual = 0.0105864, No Iterations 2
DICPCG:  Solving for p, Initial residual = 0.434084, Final residual = 0.0428202, No Iterations 250
time step continuity errors : sum local = 0.00028163, global = -1.89017e-05, cumulative = -2.19977e-05
ExecutionTime = 159.629 s  ClockTime = 160 s

Time = 31s

DILUPBiCGStab:  Solving for Ux, Initial residual = 0.231281, Final residual = 0.0125988, No Iterations 2
DILUPBiCGStab:  Solving for Uy, Initial residual = 0.107698, Final residual = 0.00764996, No Iterations 2
DILUPBiCGStab:  Solving for Uz, Initial residual = 0.170835, Final residual = 0.011048, No Iterations 2
DICPCG:  Solving for p, Initial residual = 0.424117, Final residual = 0.0413405, No Iterations 64
time step continuity errors : sum local = 0.000279082, global = 1.55243e-05, cumulative = -6.47345e-06
ExecutionTime = 161.972 s  ClockTime = 162 s

Time = 32s

DILUPBiCGStab:  Solving for Ux, Initial residual = 0.207732, Final residual = 0.0121428, No Iterations 2
DILUPBiCGStab:  Solving for Uy, Initial residual = 0.084672, Final residual = 0.00594747, No Iterations 2
DILUPBiCGStab:  Solving for Uz, Initial residual = 0.12349, Final residual = 0.00826229, No Iterations 2
DICPCG:  Solving for p, Initial residual = 0.40183, Final residual = 0.0398064, No Iterations 102
time step continuity errors : sum local = 0.000254026, global = 1.09841e-05, cumulative = 4.5106e-06
ExecutionTime = 165.174 s  ClockTime = 165 s

Time = 33s

DILUPBiCGStab:  Solving for Ux, Initial residual = 0.196351, Final residual = 0.0113396, No Iterations 2
DILUPBiCGStab:  Solving for Uy, Initial residual = 0.0918208, Final residual = 0.0067748, No Iterations 2
DILUPBiCGStab:  Solving for Uz, Initial residual = 0.134451, Final residual = 0.00970504, No Iterations 2
DICPCG:  Solving for p, Initial residual = 0.383444, Final residual = 0.0364238, No Iterations 110
time step continuity errors : sum local = 0.000231299, global = -1.4207e-05, cumulative = -9.6964e-06
ExecutionTime = 168.577 s  ClockTime = 169 s

Time = 34s

DILUPBiCGStab:  Solving for Ux, Initial residual = 0.187763, Final residual = 0.0102313, No Iterations 2
DILUPBiCGStab:  Solving for Uy, Initial residual = 0.0909295, Final residual = 0.00630105, No Iterations 2
DILUPBiCGStab:  Solving for Uz, Initial residual = 0.118717, Final residual = 0.00849579, No Iterations 2
DICPCG:  Solving for p, Initial residual = 0.390871, Final residual = 0.0385786, No Iterations 260
time step continuity errors : sum local = 0.000247731, global = -2.02006e-05, cumulative = -2.9897e-05
ExecutionTime = 175.347 s  ClockTime = 176 s

Time = 35s

DILUPBiCGStab:  Solving for Ux, Initial residual = 0.091181, Final residual = 0.00649717, No Iterations 2
DILUPBiCGStab:  Solving for Uy, Initial residual = 0.0838055, Final residual = 0.00608883, No Iterations 2
DILUPBiCGStab:  Solving for Uz, Initial residual = 0.119274, Final residual = 0.00776118, No Iterations 2
DICPCG:  Solving for p, Initial residual = 0.618133, Final residual = 0.0599528, No Iterations 96
time step continuity errors : sum local = 0.000213866, global = -8.24808e-06, cumulative = -3.81451e-05
ExecutionTime = 178.418 s  ClockTime = 179 s

Time = 36s

DILUPBiCGStab:  Solving for Ux, Initial residual = 0.0912708, Final residual = 0.0064102, No Iterations 2
DILUPBiCGStab:  Solving for Uy, Initial residual = 0.0843318, Final residual = 0.00583504, No Iterations 2
DILUPBiCGStab:  Solving for Uz, Initial residual = 0.106147, Final residual = 0.00734621, No Iterations 2
DICPCG:  Solving for p, Initial residual = 0.587848, Final residual = 0.0561963, No Iterations 57
time step continuity errors : sum local = 0.000207101, global = -3.96271e-06, cumulative = -4.21078e-05
ExecutionTime = 180.597 s  ClockTime = 181 s

Time = 37s

DILUPBiCGStab:  Solving for Ux, Initial residual = 0.0889872, Final residual = 0.00628591, No Iterations 2
DILUPBiCGStab:  Solving for Uy, Initial residual = 0.0646351, Final residual = 0.00458707, No Iterations 2
DILUPBiCGStab:  Solving for Uz, Initial residual = 0.093728, Final residual = 0.00662374, No Iterations 2
DICPCG:  Solving for p, Initial residual = 0.576888, Final residual = 0.0571827, No Iterations 66
time step continuity errors : sum local = 0.000208823, global = 5.31828e-06, cumulative = -3.67895e-05
ExecutionTime = 182.989 s  ClockTime = 183 s

Time = 38s

DILUPBiCGStab:  Solving for Ux, Initial residual = 0.0874805, Final residual = 0.00587015, No Iterations 2
DILUPBiCGStab:  Solving for Uy, Initial residual = 0.055035, Final residual = 0.00401454, No Iterations 2
DILUPBiCGStab:  Solving for Uz, Initial residual = 0.0882774, Final residual = 0.00618326, No Iterations 2
DICPCG:  Solving for p, Initial residual = 0.566276, Final residual = 0.0531959, No Iterations 92
time step continuity errors : sum local = 0.00018218, global = 9.17895e-06, cumulative = -2.76106e-05
ExecutionTime = 185.974 s  ClockTime = 186 s

Time = 39s

DILUPBiCGStab:  Solving for Ux, Initial residual = 0.0859217, Final residual = 0.00575856, No Iterations 2
DILUPBiCGStab:  Solving for Uy, Initial residual = 0.0676301, Final residual = 0.00485228, No Iterations 2
DILUPBiCGStab:  Solving for Uz, Initial residual = 0.0877823, Final residual = 0.0064062, No Iterations 2
DICPCG:  Solving for p, Initial residual = 0.599721, Final residual = 0.0586628, No Iterations 64
time step continuity errors : sum local = 0.000176251, global = 2.16228e-05, cumulative = -5.98774e-06
ExecutionTime = 188.316 s  ClockTime = 189 s

Time = 40s

DILUPBiCGStab:  Solving for Ux, Initial residual = 0.0830299, Final residual = 0.00553534, No Iterations 2
DILUPBiCGStab:  Solving for Uy, Initial residual = 0.0631312, Final residual = 0.00450458, No Iterations 2
DILUPBiCGStab:  Solving for Uz, Initial residual = 0.0753073, Final residual = 0.0053601, No Iterations 2
DICPCG:  Solving for p, Initial residual = 0.608776, Final residual = 0.0608487, No Iterations 277
time step continuity errors : sum local = 0.000174351, global = -9.04595e-07, cumulative = -6.89234e-06
ExecutionTime = 195.525 s  ClockTime = 196 s

Time = 41s

DILUPBiCGStab:  Solving for Ux, Initial residual = 0.150076, Final residual = 0.00765465, No Iterations 2
DILUPBiCGStab:  Solving for Uy, Initial residual = 0.0709416, Final residual = 0.00501393, No Iterations 2
DILUPBiCGStab:  Solving for Uz, Initial residual = 0.0938934, Final residual = 0.0065543, No Iterations 2
DICPCG:  Solving for p, Initial residual = 0.275674, Final residual = 0.0266345, No Iterations 90
time step continuity errors : sum local = 0.000193888, global = -5.60972e-06, cumulative = -1.25021e-05
ExecutionTime = 198.471 s  ClockTime = 199 s

Time = 42s

DILUPBiCGStab:  Solving for Ux, Initial residual = 0.138719, Final residual = 0.00690257, No Iterations 2
DILUPBiCGStab:  Solving for Uy, Initial residual = 0.0649392, Final residual = 0.00444559, No Iterations 2
DILUPBiCGStab:  Solving for Uz, Initial residual = 0.0711044, Final residual = 0.00501563, No Iterations 2
DICPCG:  Solving for p, Initial residual = 0.263561, Final residual = 0.0262895, No Iterations 208
time step continuity errors : sum local = 0.000190411, global = 4.94352e-06, cumulative = -7.55853e-06
ExecutionTime = 204.085 s  ClockTime = 204 s

Time = 43s

DILUPBiCGStab:  Solving for Ux, Initial residual = 0.0627675, Final residual = 0.00451668, No Iterations 2
DILUPBiCGStab:  Solving for Uy, Initial residual = 0.0633477, Final residual = 0.00437129, No Iterations 2
DILUPBiCGStab:  Solving for Uz, Initial residual = 0.0870548, Final residual = 0.00602202, No Iterations 2
DICPCG:  Solving for p, Initial residual = 0.573194, Final residual = 0.0572664, No Iterations 297
time step continuity errors : sum local = 0.000169993, global = -1.63157e-06, cumulative = -9.1901e-06
ExecutionTime = 211.779 s  ClockTime = 212 s

Time = 44s

DILUPBiCGStab:  Solving for Ux, Initial residual = 0.0869755, Final residual = 0.00499091, No Iterations 2
DILUPBiCGStab:  Solving for Uy, Initial residual = 0.0490184, Final residual = 0.00348023, No Iterations 2
DILUPBiCGStab:  Solving for Uz, Initial residual = 0.0786286, Final residual = 0.0054872, No Iterations 2
DICPCG:  Solving for p, Initial residual = 0.33612, Final residual = 0.033147, No Iterations 95
time step continuity errors : sum local = 0.000179751, global = 1.2279e-05, cumulative = 3.08888e-06
ExecutionTime = 214.828 s  ClockTime = 215 s

Time = 45s

DILUPBiCGStab:  Solving for Ux, Initial residual = 0.0833984, Final residual = 0.00478639, No Iterations 2
DILUPBiCGStab:  Solving for Uy, Initial residual = 0.0551666, Final residual = 0.00383317, No Iterations 2
DILUPBiCGStab:  Solving for Uz, Initial residual = 0.0655466, Final residual = 0.00472723, No Iterations 2
DICPCG:  Solving for p, Initial residual = 0.33895, Final residual = 0.0337931, No Iterations 246
time step continuity errors : sum local = 0.000166652, global = -2.44052e-06, cumulative = 6.48359e-07
ExecutionTime = 221.318 s  ClockTime = 222 s

Time = 46s

DILUPBiCGStab:  Solving for Ux, Initial residual = 0.0752719, Final residual = 0.00458791, No Iterations 2
DILUPBiCGStab:  Solving for Uy, Initial residual = 0.0601808, Final residual = 0.00429796, No Iterations 2
DILUPBiCGStab:  Solving for Uz, Initial residual = 0.0812022, Final residual = 0.00539371, No Iterations 2
DICPCG:  Solving for p, Initial residual = 0.291862, Final residual = 0.0280586, No Iterations 115
time step continuity errors : sum local = 0.000148067, global = 1.94057e-05, cumulative = 2.0054e-05
ExecutionTime = 224.846 s  ClockTime = 225 s

Time = 47s

DILUPBiCGStab:  Solving for Ux, Initial residual = 0.0687678, Final residual = 0.00407541, No Iterations 2
DILUPBiCGStab:  Solving for Uy, Initial residual = 0.0477754, Final residual = 0.00337323, No Iterations 2
DILUPBiCGStab:  Solving for Uz, Initial residual = 0.0563884, Final residual = 0.00391532, No Iterations 2
DICPCG:  Solving for p, Initial residual = 0.286548, Final residual = 0.0281957, No Iterations 96
time step continuity errors : sum local = 0.000142549, global = -2.46184e-06, cumulative = 1.75922e-05
ExecutionTime = 227.933 s  ClockTime = 228 s

Time = 48s

DILUPBiCGStab:  Solving for Ux, Initial residual = 0.0687376, Final residual = 0.0039974, No Iterations 2
DILUPBiCGStab:  Solving for Uy, Initial residual = 0.0553554, Final residual = 0.00367133, No Iterations 2
DILUPBiCGStab:  Solving for Uz, Initial residual = 0.0534616, Final residual = 0.00379154, No Iterations 2
DICPCG:  Solving for p, Initial residual = 0.282977, Final residual = 0.0270805, No Iterations 38
time step continuity errors : sum local = 0.000138314, global = -2.35969e-05, cumulative = -6.00468e-06
ExecutionTime = 229.691 s  ClockTime = 230 s

Time = 49s

DILUPBiCGStab:  Solving for Ux, Initial residual = 0.0654009, Final residual = 0.00373373, No Iterations 2
DILUPBiCGStab:  Solving for Uy, Initial residual = 0.0456151, Final residual = 0.00312534, No Iterations 2
DILUPBiCGStab:  Solving for Uz, Initial residual = 0.0502085, Final residual = 0.0036361, No Iterations 2
DICPCG:  Solving for p, Initial residual = 0.263731, Final residual = 0.0263581, No Iterations 243
time step continuity errors : sum local = 0.000140561, global = -4.03661e-06, cumulative = -1.00413e-05
ExecutionTime = 236.107 s  ClockTime = 236 s

Time = 50s

DILUPBiCGStab:  Solving for Ux, Initial residual = 0.0633699, Final residual = 0.00370251, No Iterations 2
DILUPBiCGStab:  Solving for Uy, Initial residual = 0.046773, Final residual = 0.00322404, No Iterations 2
DILUPBiCGStab:  Solving for Uz, Initial residual = 0.0755764, Final residual = 0.00500717, No Iterations 2
DICPCG:  Solving for p, Initial residual = 0.310494, Final residual = 0.0308703, No Iterations 53
time step continuity errors : sum local = 0.000150537, global = -4.3746e-06, cumulative = -1.44159e-05
ExecutionTime = 238.199 s  ClockTime = 238 s

Time = 51s

DILUPBiCGStab:  Solving for Ux, Initial residual = 0.0636046, Final residual = 0.00366429, No Iterations 2
DILUPBiCGStab:  Solving for Uy, Initial residual = 0.0431342, Final residual = 0.00302134, No Iterations 2
DILUPBiCGStab:  Solving for Uz, Initial residual = 0.0488739, Final residual = 0.0034888, No Iterations 2
DICPCG:  Solving for p, Initial residual = 0.297025, Final residual = 0.0296978, No Iterations 115
time step continuity errors : sum local = 0.000145909, global = 1.06048e-05, cumulative = -3.81105e-06
ExecutionTime = 241.695 s  ClockTime = 242 s

Time = 52s

DILUPBiCGStab:  Solving for Ux, Initial residual = 0.0608113, Final residual = 0.00345415, No Iterations 2
DILUPBiCGStab:  Solving for Uy, Initial residual = 0.0407648, Final residual = 0.00286852, No Iterations 2
DILUPBiCGStab:  Solving for Uz, Initial residual = 0.0469138, Final residual = 0.00331188, No Iterations 2
DICPCG:  Solving for p, Initial residual = 0.303706, Final residual = 0.0296257, No Iterations 242
time step continuity errors : sum local = 0.000125877, global = 7.7748e-07, cumulative = -3.03357e-06
ExecutionTime = 248.111 s  ClockTime = 248 s

Time = 53s

DILUPBiCGStab:  Solving for Ux, Initial residual = 0.059195, Final residual = 0.00352588, No Iterations 2
DILUPBiCGStab:  Solving for Uy, Initial residual = 0.0475363, Final residual = 0.00333918, No Iterations 2
DILUPBiCGStab:  Solving for Uz, Initial residual = 0.0652509, Final residual = 0.00429008, No Iterations 2
DICPCG:  Solving for p, Initial residual = 0.251131, Final residual = 0.0244482, No Iterations 94
time step continuity errors : sum local = 0.000128913, global = 1.04711e-05, cumulative = 7.43752e-06
ExecutionTime = 251.141 s  ClockTime = 251 s

Time = 54s

DILUPBiCGStab:  Solving for Ux, Initial residual = 0.0574355, Final residual = 0.00322531, No Iterations 2
DILUPBiCGStab:  Solving for Uy, Initial residual = 0.045658, Final residual = 0.0030262, No Iterations 2
DILUPBiCGStab:  Solving for Uz, Initial residual = 0.0431569, Final residual = 0.00303515, No Iterations 2
DICPCG:  Solving for p, Initial residual = 0.252684, Final residual = 0.0245524, No Iterations 113
time step continuity errors : sum local = 0.000124152, global = -1.20761e-05, cumulative = -4.63863e-06
ExecutionTime = 254.594 s  ClockTime = 255 s

Time = 55s

DILUPBiCGStab:  Solving for Ux, Initial residual = 0.0558492, Final residual = 0.00313883, No Iterations 2
DILUPBiCGStab:  Solving for Uy, Initial residual = 0.0437349, Final residual = 0.00288563, No Iterations 2
DILUPBiCGStab:  Solving for Uz, Initial residual = 0.0430621, Final residual = 0.00304927, No Iterations 2
DICPCG:  Solving for p, Initial residual = 0.243543, Final residual = 0.0241225, No Iterations 240
time step continuity errors : sum local = 0.00012205, global = 1.46283e-06, cumulative = -3.1758e-06
ExecutionTime = 260.983 s  ClockTime = 261 s

Time = 56s

DILUPBiCGStab:  Solving for Ux, Initial residual = 0.0427954, Final residual = 0.00267093, No Iterations 2
DILUPBiCGStab:  Solving for Uy, Initial residual = 0.0409906, Final residual = 0.00288408, No Iterations 2
DILUPBiCGStab:  Solving for Uz, Initial residual = 0.0577534, Final residual = 0.00402137, No Iterations 2
DICPCG:  Solving for p, Initial residual = 0.313643, Final residual = 0.0307274, No Iterations 103
time step continuity errors : sum local = 0.000115958, global = -1.31511e-05, cumulative = -1.63269e-05
ExecutionTime = 264.203 s  ClockTime = 264 s

Time = 57s

DILUPBiCGStab:  Solving for Ux, Initial residual = 0.0434213, Final residual = 0.00272382, No Iterations 2
DILUPBiCGStab:  Solving for Uy, Initial residual = 0.0364759, Final residual = 0.0025593, No Iterations 2
DILUPBiCGStab:  Solving for Uz, Initial residual = 0.0412295, Final residual = 0.00291798, No Iterations 2
DICPCG:  Solving for p, Initial residual = 0.307395, Final residual = 0.030571, No Iterations 89
time step continuity errors : sum local = 0.000117152, global = 6.64881e-06, cumulative = -9.67812e-06
ExecutionTime = 267.113 s  ClockTime = 267 s

Time = 58s

DILUPBiCGStab:  Solving for Ux, Initial residual = 0.0415971, Final residual = 0.00254025, No Iterations 2
DILUPBiCGStab:  Solving for Uy, Initial residual = 0.029669, Final residual = 0.00220477, No Iterations 2
DILUPBiCGStab:  Solving for Uz, Initial residual = 0.0366097, Final residual = 0.00258939, No Iterations 2
DICPCG:  Solving for p, Initial residual = 0.299679, Final residual = 0.0289154, No Iterations 244
time step continuity errors : sum local = 0.000104158, global = -3.90732e-06, cumulative = -1.35854e-05
ExecutionTime = 273.556 s  ClockTime = 274 s

Time = 59s

DILUPBiCGStab:  Solving for Ux, Initial residual = 0.032545, Final residual = 0.00245091, No Iterations 2
DILUPBiCGStab:  Solving for Uy, Initial residual = 0.035999, Final residual = 0.00254582, No Iterations 2
DILUPBiCGStab:  Solving for Uz, Initial residual = 0.0423973, Final residual = 0.00292272, No Iterations 2
DICPCG:  Solving for p, Initial residual = 0.310542, Final residual = 0.0309989, No Iterations 106
time step continuity errors : sum local = 0.000100273, global = 1.16919e-05, cumulative = -1.89358e-06
ExecutionTime = 276.839 s  ClockTime = 277 s

Time = 60s

DILUPBiCGStab:  Solving for Ux, Initial residual = 0.0262698, Final residual = 0.0025723, No Iterations 2
DILUPBiCGStab:  Solving for Uy, Initial residual = 0.0355711, Final residual = 0.00241503, No Iterations 2
DILUPBiCGStab:  Solving for Uz, Initial residual = 0.0341768, Final residual = 0.00245318, No Iterations 2
DICPCG:  Solving for p, Initial residual = 0.312632, Final residual = 0.0312443, No Iterations 98
time step continuity errors : sum local = 9.57436e-05, global = 6.44311e-06, cumulative = 4.54953e-06
ExecutionTime = 279.95 s  ClockTime = 280 s

Time = 61s

DILUPBiCGStab:  Solving for Ux, Initial residual = 0.0265824, Final residual = 0.00215029, No Iterations 2
DILUPBiCGStab:  Solving for Uy, Initial residual = 0.033764, Final residual = 0.00231486, No Iterations 2
DILUPBiCGStab:  Solving for Uz, Initial residual = 0.0341973, Final residual = 0.00246178, No Iterations 2
DICPCG:  Solving for p, Initial residual = 0.302676, Final residual = 0.0299465, No Iterations 36
time step continuity errors : sum local = 9.33683e-05, global = 2.71997e-06, cumulative = 7.26949e-06
ExecutionTime = 281.659 s  ClockTime = 282 s

Time = 62s

DILUPBiCGStab:  Solving for Ux, Initial residual = 0.0254418, Final residual = 0.0020429, No Iterations 2
DILUPBiCGStab:  Solving for Uy, Initial residual = 0.0303797, Final residual = 0.00212602, No Iterations 2
DILUPBiCGStab:  Solving for Uz, Initial residual = 0.0326368, Final residual = 0.00231904, No Iterations 2
DICPCG:  Solving for p, Initial residual = 0.290991, Final residual = 0.0279579, No Iterations 92
time step continuity errors : sum local = 8.85364e-05, global = -7.027e-06, cumulative = 2.42494e-07
ExecutionTime = 284.631 s  ClockTime = 285 s

Time = 63s

DILUPBiCGStab:  Solving for Ux, Initial residual = 0.0241163, Final residual = 0.00199694, No Iterations 2
DILUPBiCGStab:  Solving for Uy, Initial residual = 0.0279387, Final residual = 0.00198142, No Iterations 2
DILUPBiCGStab:  Solving for Uz, Initial residual = 0.0313211, Final residual = 0.00224627, No Iterations 2
DICPCG:  Solving for p, Initial residual = 0.273376, Final residual = 0.0267404, No Iterations 244
time step continuity errors : sum local = 8.67066e-05, global = -2.27246e-06, cumulative = -2.02996e-06
ExecutionTime = 291.045 s  ClockTime = 291 s

Time = 64s

DILUPBiCGStab:  Solving for Ux, Initial residual = 0.0290719, Final residual = 0.00199301, No Iterations 2
DILUPBiCGStab:  Solving for Uy, Initial residual = 0.0272746, Final residual = 0.0019685, No Iterations 2
DILUPBiCGStab:  Solving for Uz, Initial residual = 0.0333208, Final residual = 0.00244161, No Iterations 2
DICPCG:  Solving for p, Initial residual = 0.312329, Final residual = 0.029859, No Iterations 78
time step continuity errors : sum local = 8.67531e-05, global = -2.79189e-06, cumulative = -4.82186e-06
ExecutionTime = 293.707 s  ClockTime = 294 s

Time = 65s

DILUPBiCGStab:  Solving for Ux, Initial residual = 0.0280882, Final residual = 0.00201453, No Iterations 2
DILUPBiCGStab:  Solving for Uy, Initial residual = 0.0270637, Final residual = 0.00193646, No Iterations 2
DILUPBiCGStab:  Solving for Uz, Initial residual = 0.0285529, Final residual = 0.00208116, No Iterations 2
DICPCG:  Solving for p, Initial residual = 0.290059, Final residual = 0.0280197, No Iterations 79
time step continuity errors : sum local = 8.41242e-05, global = 5.19095e-06, cumulative = 3.69095e-07
ExecutionTime = 296.382 s  ClockTime = 297 s

Time = 66s

DILUPBiCGStab:  Solving for Ux, Initial residual = 0.0291276, Final residual = 0.00187033, No Iterations 2
DILUPBiCGStab:  Solving for Uy, Initial residual = 0.0267837, Final residual = 0.00190547, No Iterations 2
DILUPBiCGStab:  Solving for Uz, Initial residual = 0.0271429, Final residual = 0.00194361, No Iterations 2
DICPCG:  Solving for p, Initial residual = 0.277676, Final residual = 0.0277223, No Iterations 250
time step continuity errors : sum local = 8.2006e-05, global = 2.75645e-06, cumulative = 3.12554e-06
ExecutionTime = 302.938 s  ClockTime = 303 s

Time = 67s

DILUPBiCGStab:  Solving for Ux, Initial residual = 0.0217981, Final residual = 0.00179961, No Iterations 2
DILUPBiCGStab:  Solving for Uy, Initial residual = 0.0291744, Final residual = 0.00201826, No Iterations 2
DILUPBiCGStab:  Solving for Uz, Initial residual = 0.0306008, Final residual = 0.00216314, No Iterations 2
DICPCG:  Solving for p, Initial residual = 0.281303, Final residual = 0.0277184, No Iterations 76
time step continuity errors : sum local = 8.00677e-05, global = 3.83731e-06, cumulative = 6.96285e-06
ExecutionTime = 305.554 s  ClockTime = 306 s

Time = 68s

DILUPBiCGStab:  Solving for Ux, Initial residual = 0.0203501, Final residual = 0.00183591, No Iterations 2
DILUPBiCGStab:  Solving for Uy, Initial residual = 0.0262557, Final residual = 0.0018462, No Iterations 2
DILUPBiCGStab:  Solving for Uz, Initial residual = 0.0272945, Final residual = 0.00203829, No Iterations 2
DICPCG:  Solving for p, Initial residual = 0.264048, Final residual = 0.0248814, No Iterations 66
time step continuity errors : sum local = 7.43001e-05, global = -3.79104e-07, cumulative = 6.58375e-06
ExecutionTime = 307.942 s  ClockTime = 308 s

Time = 69s

DILUPBiCGStab:  Solving for Ux, Initial residual = 0.0206898, Final residual = 0.00167879, No Iterations 2
DILUPBiCGStab:  Solving for Uy, Initial residual = 0.02809, Final residual = 0.00186189, No Iterations 2
DILUPBiCGStab:  Solving for Uz, Initial residual = 0.0261004, Final residual = 0.00189157, No Iterations 2
DICPCG:  Solving for p, Initial residual = 0.252773, Final residual = 0.0245843, No Iterations 21
time step continuity errors : sum local = 7.55278e-05, global = -6.80204e-06, cumulative = -2.18295e-07
ExecutionTime = 309.318 s  ClockTime = 310 s

Time = 70s

DILUPBiCGStab:  Solving for Ux, Initial residual = 0.0201065, Final residual = 0.00160861, No Iterations 2
DILUPBiCGStab:  Solving for Uy, Initial residual = 0.0273233, Final residual = 0.00178879, No Iterations 2
DILUPBiCGStab:  Solving for Uz, Initial residual = 0.0253195, Final residual = 0.00178858, No Iterations 2
DICPCG:  Solving for p, Initial residual = 0.248248, Final residual = 0.0245931, No Iterations 294
time step continuity errors : sum local = 7.56768e-05, global = 4.32377e-07, cumulative = 2.14082e-07
ExecutionTime = 316.908 s  ClockTime = 317 s

Time = 71s

DILUPBiCGStab:  Solving for Ux, Initial residual = 0.0253726, Final residual = 0.0016007, No Iterations 2
DILUPBiCGStab:  Solving for Uy, Initial residual = 0.0275071, Final residual = 0.00188532, No Iterations 2
DILUPBiCGStab:  Solving for Uz, Initial residual = 0.0305657, Final residual = 0.00221096, No Iterations 2
DICPCG:  Solving for p, Initial residual = 0.27501, Final residual = 0.0263914, No Iterations 33
time step continuity errors : sum local = 7.58776e-05, global = -2.37936e-06, cumulative = -2.16528e-06
ExecutionTime = 318.548 s  ClockTime = 319 s

Time = 72s

DILUPBiCGStab:  Solving for Ux, Initial residual = 0.0255392, Final residual = 0.00163557, No Iterations 2
DILUPBiCGStab:  Solving for Uy, Initial residual = 0.0233105, Final residual = 0.00165045, No Iterations 2
DILUPBiCGStab:  Solving for Uz, Initial residual = 0.0240892, Final residual = 0.00175896, No Iterations 2
DICPCG:  Solving for p, Initial residual = 0.263556, Final residual = 0.0256948, No Iterations 16
time step continuity errors : sum local = 7.54458e-05, global = 8.79207e-06, cumulative = 6.6268e-06
ExecutionTime = 319.816 s  ClockTime = 320 s

Time = 73s

DILUPBiCGStab:  Solving for Ux, Initial residual = 0.0249451, Final residual = 0.00153641, No Iterations 2
DILUPBiCGStab:  Solving for Uy, Initial residual = 0.0233172, Final residual = 0.00163203, No Iterations 2
DILUPBiCGStab:  Solving for Uz, Initial residual = 0.0233147, Final residual = 0.00164677, No Iterations 2
DICPCG:  Solving for p, Initial residual = 0.258225, Final residual = 0.0257982, No Iterations 258
time step continuity errors : sum local = 7.36136e-05, global = 1.87517e-06, cumulative = 8.50197e-06
ExecutionTime = 326.57 s  ClockTime = 327 s

Time = 74s

DILUPBiCGStab:  Solving for Ux, Initial residual = 0.0291577, Final residual = 0.00169362, No Iterations 2
DILUPBiCGStab:  Solving for Uy, Initial residual = 0.0322367, Final residual = 0.00214112, No Iterations 2
DILUPBiCGStab:  Solving for Uz, Initial residual = 0.032013, Final residual = 0.00221532, No Iterations 2
DICPCG:  Solving for p, Initial residual = 0.220464, Final residual = 0.02119, No Iterations 16
time step continuity errors : sum local = 7.95015e-05, global = 4.44461e-06, cumulative = 1.29466e-05
ExecutionTime = 327.83 s  ClockTime = 328 s

Time = 75s

DILUPBiCGStab:  Solving for Ux, Initial residual = 0.0281784, Final residual = 0.00159925, No Iterations 2
DILUPBiCGStab:  Solving for Uy, Initial residual = 0.028332, Final residual = 0.00178702, No Iterations 2
DILUPBiCGStab:  Solving for Uz, Initial residual = 0.0240194, Final residual = 0.00166203, No Iterations 2
DICPCG:  Solving for p, Initial residual = 0.208376, Final residual = 0.0205627, No Iterations 84
time step continuity errors : sum local = 7.89596e-05, global = -8.32703e-06, cumulative = 4.61955e-06
ExecutionTime = 330.626 s  ClockTime = 331 s

Time = 76s

DILUPBiCGStab:  Solving for Ux, Initial residual = 0.0280764, Final residual = 0.00155177, No Iterations 2
DILUPBiCGStab:  Solving for Uy, Initial residual = 0.028437, Final residual = 0.00180312, No Iterations 2
DILUPBiCGStab:  Solving for Uz, Initial residual = 0.0260164, Final residual = 0.00178592, No Iterations 2
DICPCG:  Solving for p, Initial residual = 0.205933, Final residual = 0.0204874, No Iterations 239
time step continuity errors : sum local = 7.79207e-05, global = -1.23875e-06, cumulative = 3.38079e-06
ExecutionTime = 336.951 s  ClockTime = 337 s

Time = 77s

DILUPBiCGStab:  Solving for Ux, Initial residual = 0.0191179, Final residual = 0.00127308, No Iterations 2
DILUPBiCGStab:  Solving for Uy, Initial residual = 0.0283097, Final residual = 0.0018221, No Iterations 2
DILUPBiCGStab:  Solving for Uz, Initial residual = 0.0309191, Final residual = 0.0021019, No Iterations 2
DICPCG:  Solving for p, Initial residual = 0.315456, Final residual = 0.0313333, No Iterations 69
time step continuity errors : sum local = 7.50047e-05, global = -4.05515e-06, cumulative = -6.74357e-07
ExecutionTime = 339.399 s  ClockTime = 340 s

Time = 78s

DILUPBiCGStab:  Solving for Ux, Initial residual = 0.0172447, Final residual = 0.00118634, No Iterations 2
DILUPBiCGStab:  Solving for Uy, Initial residual = 0.0230385, Final residual = 0.0015902, No Iterations 2
DILUPBiCGStab:  Solving for Uz, Initial residual = 0.0249808, Final residual = 0.00166311, No Iterations 2
DICPCG:  Solving for p, Initial residual = 0.304017, Final residual = 0.0303676, No Iterations 78
time step continuity errors : sum local = 7.47947e-05, global = 7.91919e-07, cumulative = 1.17561e-07
ExecutionTime = 342.058 s  ClockTime = 342 s

Time = 79s

DILUPBiCGStab:  Solving for Ux, Initial residual = 0.0159881, Final residual = 0.00117771, No Iterations 2
DILUPBiCGStab:  Solving for Uy, Initial residual = 0.0249601, Final residual = 0.00163564, No Iterations 2
DILUPBiCGStab:  Solving for Uz, Initial residual = 0.0232451, Final residual = 0.00158714, No Iterations 2
DICPCG:  Solving for p, Initial residual = 0.29897, Final residual = 0.0293145, No Iterations 26
time step continuity errors : sum local = 7.06185e-05, global = 1.13695e-05, cumulative = 1.14871e-05
ExecutionTime = 343.541 s  ClockTime = 344 s

Time = 80s

DILUPBiCGStab:  Solving for Ux, Initial residual = 0.0156836, Final residual = 0.00124159, No Iterations 2
DILUPBiCGStab:  Solving for Uy, Initial residual = 0.0244143, Final residual = 0.00159195, No Iterations 2
DILUPBiCGStab:  Solving for Uz, Initial residual = 0.0223472, Final residual = 0.00149165, No Iterations 2
DICPCG:  Solving for p, Initial residual = 0.290459, Final residual = 0.0285078, No Iterations 228
time step continuity errors : sum local = 6.76927e-05, global = -1.80302e-06, cumulative = 9.68407e-06
ExecutionTime = 349.582 s  ClockTime = 350 s

Time = 81s

DILUPBiCGStab:  Solving for Ux, Initial residual = 0.0209131, Final residual = 0.00124292, No Iterations 2
DILUPBiCGStab:  Solving for Uy, Initial residual = 0.0284103, Final residual = 0.0017721, No Iterations 2
DILUPBiCGStab:  Solving for Uz, Initial residual = 0.0264297, Final residual = 0.00177967, No Iterations 2
DICPCG:  Solving for p, Initial residual = 0.213643, Final residual = 0.02117, No Iterations 81
time step continuity errors : sum local = 7.30129e-05, global = 1.53431e-06, cumulative = 1.12184e-05
ExecutionTime = 352.314 s  ClockTime = 353 s

Time = 82s

DILUPBiCGStab:  Solving for Ux, Initial residual = 0.0205263, Final residual = 0.0011819, No Iterations 2
DILUPBiCGStab:  Solving for Uy, Initial residual = 0.025448, Final residual = 0.0016299, No Iterations 2
DILUPBiCGStab:  Solving for Uz, Initial residual = 0.0231739, Final residual = 0.00152104, No Iterations 2
DICPCG:  Solving for p, Initial residual = 0.206834, Final residual = 0.0202237, No Iterations 84
time step continuity errors : sum local = 7.0513e-05, global = -5.47355e-06, cumulative = 5.74483e-06
ExecutionTime = 355.112 s  ClockTime = 355 s

Time = 83s

DILUPBiCGStab:  Solving for Ux, Initial residual = 0.0202178, Final residual = 0.00118301, No Iterations 2
DILUPBiCGStab:  Solving for Uy, Initial residual = 0.0256716, Final residual = 0.00162511, No Iterations 2
DILUPBiCGStab:  Solving for Uz, Initial residual = 0.0238185, Final residual = 0.00153053, No Iterations 2
DICPCG:  Solving for p, Initial residual = 0.207304, Final residual = 0.01963, No Iterations 204
time step continuity errors : sum local = 6.70674e-05, global = 7.96714e-09, cumulative = 5.75279e-06
ExecutionTime = 360.602 s  ClockTime = 361 s

Time = 84s

DILUPBiCGStab:  Solving for Ux, Initial residual = 0.0209009, Final residual = 0.00117602, No Iterations 2
DILUPBiCGStab:  Solving for Uy, Initial residual = 0.0271855, Final residual = 0.00172305, No Iterations 2
DILUPBiCGStab:  Solving for Uz, Initial residual = 0.0278189, Final residual = 0.00183258, No Iterations 2
DICPCG:  Solving for p, Initial residual = 0.262456, Final residual = 0.0256109, No Iterations 84
time step continuity errors : sum local = 7.19057e-05, global = -6.87524e-06, cumulative = -1.12245e-06
ExecutionTime = 363.397 s  ClockTime = 364 s

Time = 85s

DILUPBiCGStab:  Solving for Ux, Initial residual = 0.0183719, Final residual = 0.00108094, No Iterations 2
DILUPBiCGStab:  Solving for Uy, Initial residual = 0.0252811, Final residual = 0.00158546, No Iterations 2
DILUPBiCGStab:  Solving for Uz, Initial residual = 0.0229706, Final residual = 0.00150889, No Iterations 2
DICPCG:  Solving for p, Initial residual = 0.25354, Final residual = 0.024262, No Iterations 86
time step continuity errors : sum local = 6.88089e-05, global = 2.43521e-06, cumulative = 1.31276e-06
ExecutionTime = 366.242 s  ClockTime = 366 s

Time = 86s

DILUPBiCGStab:  Solving for Ux, Initial residual = 0.0185384, Final residual = 0.00108463, No Iterations 2
DILUPBiCGStab:  Solving for Uy, Initial residual = 0.0236744, Final residual = 0.0015229, No Iterations 2
DILUPBiCGStab:  Solving for Uz, Initial residual = 0.0222681, Final residual = 0.00143808, No Iterations 2
DICPCG:  Solving for p, Initial residual = 0.25213, Final residual = 0.0245715, No Iterations 35
time step continuity errors : sum local = 6.71809e-05, global = 1.06389e-05, cumulative = 1.19517e-05
ExecutionTime = 367.932 s  ClockTime = 368 s

Time = 87s

DILUPBiCGStab:  Solving for Ux, Initial residual = 0.0183443, Final residual = 0.00107646, No Iterations 2
DILUPBiCGStab:  Solving for Uy, Initial residual = 0.0230238, Final residual = 0.00151979, No Iterations 2
DILUPBiCGStab:  Solving for Uz, Initial residual = 0.0214214, Final residual = 0.00137879, No Iterations 2
DICPCG:  Solving for p, Initial residual = 0.248707, Final residual = 0.0242214, No Iterations 268
time step continuity errors : sum local = 6.46667e-05, global = 2.46694e-06, cumulative = 1.44186e-05
ExecutionTime = 374.883 s  ClockTime = 375 s

Time = 88s

DILUPBiCGStab:  Solving for Ux, Initial residual = 0.0207431, Final residual = 0.00118901, No Iterations 2
DILUPBiCGStab:  Solving for Uy, Initial residual = 0.0296137, Final residual = 0.00182655, No Iterations 2
DILUPBiCGStab:  Solving for Uz, Initial residual = 0.0268382, Final residual = 0.0018252, No Iterations 2
DICPCG:  Solving for p, Initial residual = 0.204957, Final residual = 0.0193046, No Iterations 33
time step continuity errors : sum local = 6.82743e-05, global = -8.98293e-07, cumulative = 1.35203e-05
ExecutionTime = 376.523 s  ClockTime = 377 s

Time = 89s

DILUPBiCGStab:  Solving for Ux, Initial residual = 0.0201588, Final residual = 0.00109226, No Iterations 2
DILUPBiCGStab:  Solving for Uy, Initial residual = 0.0258166, Final residual = 0.00159107, No Iterations 2
DILUPBiCGStab:  Solving for Uz, Initial residual = 0.0217823, Final residual = 0.00138835, No Iterations 2
DICPCG:  Solving for p, Initial residual = 0.198427, Final residual = 0.0198032, No Iterations 257
time step continuity errors : sum local = 7.04181e-05, global = 7.22625e-07, cumulative = 1.4243e-05
ExecutionTime = 383.217 s  ClockTime = 383 s

Time = 90s

DILUPBiCGStab:  Solving for Ux, Initial residual = 0.0128643, Final residual = 0.000888511, No Iterations 2
DILUPBiCGStab:  Solving for Uy, Initial residual = 0.0245806, Final residual = 0.00153139, No Iterations 2
DILUPBiCGStab:  Solving for Uz, Initial residual = 0.02404, Final residual = 0.0015372, No Iterations 2
DICPCG:  Solving for p, Initial residual = 0.274691, Final residual = 0.0257967, No Iterations 228
time step continuity errors : sum local = 6.02585e-05, global = -4.91222e-07, cumulative = 1.37517e-05
ExecutionTime = 389.259 s  ClockTime = 390 s

Time = 91s

DILUPBiCGStab:  Solving for Ux, Initial residual = 0.0201431, Final residual = 0.00108906, No Iterations 2
DILUPBiCGStab:  Solving for Uy, Initial residual = 0.0241797, Final residual = 0.00151269, No Iterations 2
DILUPBiCGStab:  Solving for Uz, Initial residual = 0.0240372, Final residual = 0.00155638, No Iterations 2
DICPCG:  Solving for p, Initial residual = 0.224169, Final residual = 0.0221385, No Iterations 16
time step continuity errors : sum local = 6.84574e-05, global = 5.05852e-06, cumulative = 1.88102e-05
ExecutionTime = 390.521 s  ClockTime = 391 s

Time = 92s

DILUPBiCGStab:  Solving for Ux, Initial residual = 0.0198034, Final residual = 0.00105824, No Iterations 2
DILUPBiCGStab:  Solving for Uy, Initial residual = 0.0222808, Final residual = 0.0014076, No Iterations 2
DILUPBiCGStab:  Solving for Uz, Initial residual = 0.0209784, Final residual = 0.00133211, No Iterations 2
DICPCG:  Solving for p, Initial residual = 0.221046, Final residual = 0.0210087, No Iterations 291
time step continuity errors : sum local = 6.32141e-05, global = -1.93304e-07, cumulative = 1.86169e-05
ExecutionTime = 397.972 s  ClockTime = 398 s

Time = 93s

DILUPBiCGStab:  Solving for Ux, Initial residual = 0.0119802, Final residual = 0.000838915, No Iterations 2
DILUPBiCGStab:  Solving for Uy, Initial residual = 0.0246463, Final residual = 0.00152319, No Iterations 2
DILUPBiCGStab:  Solving for Uz, Initial residual = 0.0232064, Final residual = 0.00148648, No Iterations 2
DICPCG:  Solving for p, Initial residual = 0.268386, Final residual = 0.0268281, No Iterations 40
time step continuity errors : sum local = 6.27009e-05, global = 7.64526e-06, cumulative = 2.62622e-05
ExecutionTime = 399.775 s  ClockTime = 400 s

Time = 94s

DILUPBiCGStab:  Solving for Ux, Initial residual = 0.0114508, Final residual = 0.000817354, No Iterations 2
DILUPBiCGStab:  Solving for Uy, Initial residual = 0.023828, Final residual = 0.00153057, No Iterations 2
DILUPBiCGStab:  Solving for Uz, Initial residual = 0.0210035, Final residual = 0.00130929, No Iterations 2
DICPCG:  Solving for p, Initial residual = 0.266249, Final residual = 0.0251777, No Iterations 16
time step continuity errors : sum local = 5.85781e-05, global = 2.21788e-06, cumulative = 2.84801e-05
ExecutionTime = 401.039 s  ClockTime = 401 s

Time = 95s

DILUPBiCGStab:  Solving for Ux, Initial residual = 0.0111956, Final residual = 0.000804901, No Iterations 2
DILUPBiCGStab:  Solving for Uy, Initial residual = 0.0235204, Final residual = 0.00150333, No Iterations 2
DILUPBiCGStab:  Solving for Uz, Initial residual = 0.0209187, Final residual = 0.00128828, No Iterations 2
DICPCG:  Solving for p, Initial residual = 0.262583, Final residual = 0.0257475, No Iterations 116
time step continuity errors : sum local = 6.00883e-05, global = 6.09327e-06, cumulative = 3.45734e-05
ExecutionTime = 404.568 s  ClockTime = 405 s

Time = 96s

DILUPBiCGStab:  Solving for Ux, Initial residual = 0.0113306, Final residual = 0.000795067, No Iterations 2
DILUPBiCGStab:  Solving for Uy, Initial residual = 0.0247466, Final residual = 0.00150369, No Iterations 2
DILUPBiCGStab:  Solving for Uz, Initial residual = 0.0219422, Final residual = 0.00137798, No Iterations 2
DICPCG:  Solving for p, Initial residual = 0.263014, Final residual = 0.0260533, No Iterations 33
time step continuity errors : sum local = 6.07966e-05, global = 1.21799e-06, cumulative = 3.57914e-05
ExecutionTime = 406.212 s  ClockTime = 406 s

Time = 97s

DILUPBiCGStab:  Solving for Ux, Initial residual = 0.0112317, Final residual = 0.000784266, No Iterations 2
DILUPBiCGStab:  Solving for Uy, Initial residual = 0.0233787, Final residual = 0.00146857, No Iterations 2
DILUPBiCGStab:  Solving for Uz, Initial residual = 0.021171, Final residual = 0.00129615, No Iterations 2
DICPCG:  Solving for p, Initial residual = 0.261699, Final residual = 0.0256788, No Iterations 52
time step continuity errors : sum local = 6.0148e-05, global = 1.82946e-06, cumulative = 3.76208e-05
ExecutionTime = 408.306 s  ClockTime = 409 s

Time = 98s

DILUPBiCGStab:  Solving for Ux, Initial residual = 0.0105397, Final residual = 0.00075472, No Iterations 2
DILUPBiCGStab:  Solving for Uy, Initial residual = 0.0224153, Final residual = 0.00141023, No Iterations 2
DILUPBiCGStab:  Solving for Uz, Initial residual = 0.0210355, Final residual = 0.00128632, No Iterations 2
DICPCG:  Solving for p, Initial residual = 0.260072, Final residual = 0.0247748, No Iterations 59
time step continuity errors : sum local = 5.80147e-05, global = 2.54068e-06, cumulative = 4.01615e-05
ExecutionTime = 410.552 s  ClockTime = 411 s

Time = 99s

DILUPBiCGStab:  Solving for Ux, Initial residual = 0.0100278, Final residual = 0.000714856, No Iterations 2
DILUPBiCGStab:  Solving for Uy, Initial residual = 0.0229407, Final residual = 0.00140213, No Iterations 2
DILUPBiCGStab:  Solving for Uz, Initial residual = 0.0208737, Final residual = 0.00128465, No Iterations 2
DICPCG:  Solving for p, Initial residual = 0.258816, Final residual = 0.0255446, No Iterations 16
time step continuity errors : sum local = 5.97978e-05, global = 2.5214e-06, cumulative = 4.26829e-05
ExecutionTime = 411.809 s  ClockTime = 412 s

Time = 100s

DILUPBiCGStab:  Solving for Ux, Initial residual = 0.00973237, Final residual = 0.000700227, No Iterations 2
DILUPBiCGStab:  Solving for Uy, Initial residual = 0.0225174, Final residual = 0.00136437, No Iterations 2
DILUPBiCGStab:  Solving for Uz, Initial residual = 0.0208246, Final residual = 0.00125875, No Iterations 2
DICPCG:  Solving for p, Initial residual = 0.256571, Final residual = 0.0253728, No Iterations 94
time step continuity errors : sum local = 5.95807e-05, global = 3.62427e-06, cumulative = 4.63072e-05
ExecutionTime = 414.853 s  ClockTime = 415 s

Time = 101s

DILUPBiCGStab:  Solving for Ux, Initial residual = 0.00943462, Final residual = 0.000690302, No Iterations 2
DILUPBiCGStab:  Solving for Uy, Initial residual = 0.0227972, Final residual = 0.0013654, No Iterations 2
DILUPBiCGStab:  Solving for Uz, Initial residual = 0.0217376, Final residual = 0.00129986, No Iterations 2
DICPCG:  Solving for p, Initial residual = 0.251272, Final residual = 0.0239826, No Iterations 16
time step continuity errors : sum local = 5.72595e-05, global = 4.32896e-06, cumulative = 5.06361e-05
ExecutionTime = 416.114 s  ClockTime = 416 s

Time = 102s

DILUPBiCGStab:  Solving for Ux, Initial residual = 0.00926546, Final residual = 0.000692647, No Iterations 2
DILUPBiCGStab:  Solving for Uy, Initial residual = 0.0220111, Final residual = 0.0013249, No Iterations 2
DILUPBiCGStab:  Solving for Uz, Initial residual = 0.0210624, Final residual = 0.0012536, No Iterations 2
DICPCG:  Solving for p, Initial residual = 0.247371, Final residual = 0.024468, No Iterations 32
time step continuity errors : sum local = 5.85689e-05, global = 4.36216e-06, cumulative = 5.49983e-05
ExecutionTime = 417.733 s  ClockTime = 418 s

Time = 103s

DILUPBiCGStab:  Solving for Ux, Initial residual = 0.00922563, Final residual = 0.000660772, No Iterations 2
DILUPBiCGStab:  Solving for Uy, Initial residual = 0.0208928, Final residual = 0.00129163, No Iterations 2
DILUPBiCGStab:  Solving for Uz, Initial residual = 0.0209097, Final residual = 0.00124655, No Iterations 2
DICPCG:  Solving for p, Initial residual = 0.24442, Final residual = 0.0239583, No Iterations 237
time step continuity errors : sum local = 5.75473e-05, global = 1.93187e-06, cumulative = 5.69302e-05
ExecutionTime = 424.005 s  ClockTime = 424 s

Time = 104s

DILUPBiCGStab:  Solving for Ux, Initial residual = 0.0156028, Final residual = 0.000836437, No Iterations 2
DILUPBiCGStab:  Solving for Uy, Initial residual = 0.0223374, Final residual = 0.00132101, No Iterations 2
DILUPBiCGStab:  Solving for Uz, Initial residual = 0.0226515, Final residual = 0.00138185, No Iterations 2
DICPCG:  Solving for p, Initial residual = 0.199479, Final residual = 0.0183862, No Iterations 16
time step continuity errors : sum local = 5.9792e-05, global = 3.88332e-07, cumulative = 5.73185e-05
ExecutionTime = 425.27 s  ClockTime = 426 s

Time = 105s

DILUPBiCGStab:  Solving for Ux, Initial residual = 0.0149809, Final residual = 0.000796335, No Iterations 2
DILUPBiCGStab:  Solving for Uy, Initial residual = 0.0213226, Final residual = 0.0012551, No Iterations 2
DILUPBiCGStab:  Solving for Uz, Initial residual = 0.0212824, Final residual = 0.001252, No Iterations 2
DICPCG:  Solving for p, Initial residual = 0.197261, Final residual = 0.0192964, No Iterations 27
time step continuity errors : sum local = 6.21807e-05, global = -3.76595e-06, cumulative = 5.35525e-05
ExecutionTime = 426.779 s  ClockTime = 427 s

Time = 106s

DILUPBiCGStab:  Solving for Ux, Initial residual = 0.0145938, Final residual = 0.000775236, No Iterations 2
DILUPBiCGStab:  Solving for Uy, Initial residual = 0.0224324, Final residual = 0.0012805, No Iterations 2
DILUPBiCGStab:  Solving for Uz, Initial residual = 0.0219256, Final residual = 0.00127644, No Iterations 2
DICPCG:  Solving for p, Initial residual = 0.195024, Final residual = 0.0188528, No Iterations 184
time step continuity errors : sum local = 6.12949e-05, global = -2.89191e-06, cumulative = 5.06606e-05
ExecutionTime = 431.848 s  ClockTime = 432 s

Time = 107s

DILUPBiCGStab:  Solving for Ux, Initial residual = 0.00914659, Final residual = 0.000617509, No Iterations 2
DILUPBiCGStab:  Solving for Uy, Initial residual = 0.0232774, Final residual = 0.00133529, No Iterations 2
DILUPBiCGStab:  Solving for Uz, Initial residual = 0.023004, Final residual = 0.00136931, No Iterations 2
DICPCG:  Solving for p, Initial residual = 0.257911, Final residual = 0.0254649, No Iterations 22
time step continuity errors : sum local = 6.04651e-05, global = -4.26918e-06, cumulative = 4.63914e-05
ExecutionTime = 433.245 s  ClockTime = 433 s

Time = 108s

DILUPBiCGStab:  Solving for Ux, Initial residual = 0.00890863, Final residual = 0.00059343, No Iterations 2
DILUPBiCGStab:  Solving for Uy, Initial residual = 0.0211977, Final residual = 0.00121796, No Iterations 2
DILUPBiCGStab:  Solving for Uz, Initial residual = 0.0207419, Final residual = 0.00121273, No Iterations 2
DICPCG:  Solving for p, Initial residual = 0.254248, Final residual = 0.0247155, No Iterations 85
time step continuity errors : sum local = 5.89535e-05, global = 4.03644e-06, cumulative = 5.04279e-05
ExecutionTime = 436.09 s  ClockTime = 436 s

Time = 109s

DILUPBiCGStab:  Solving for Ux, Initial residual = 0.00906995, Final residual = 0.000591624, No Iterations 2
DILUPBiCGStab:  Solving for Uy, Initial residual = 0.0188453, Final residual = 0.0011276, No Iterations 2
DILUPBiCGStab:  Solving for Uz, Initial residual = 0.0204514, Final residual = 0.00121525, No Iterations 2
DICPCG:  Solving for p, Initial residual = 0.251714, Final residual = 0.0248798, No Iterations 36
time step continuity errors : sum local = 5.89495e-05, global = 7.6359e-06, cumulative = 5.80638e-05
ExecutionTime = 437.789 s  ClockTime = 438 s

Time = 110s

DILUPBiCGStab:  Solving for Ux, Initial residual = 0.00948245, Final residual = 0.000599174, No Iterations 2
DILUPBiCGStab:  Solving for Uy, Initial residual = 0.0188988, Final residual = 0.00113533, No Iterations 2
DILUPBiCGStab:  Solving for Uz, Initial residual = 0.0202719, Final residual = 0.0011852, No Iterations 2
DICPCG:  Solving for p, Initial residual = 0.244594, Final residual = 0.0241996, No Iterations 214
time step continuity errors : sum local = 5.7539e-05, global = 5.62525e-07, cumulative = 5.86263e-05
ExecutionTime = 443.54 s  ClockTime = 444 s

Time = 111s

DILUPBiCGStab:  Solving for Ux, Initial residual = 0.0211194, Final residual = 0.000989583, No Iterations 2
DILUPBiCGStab:  Solving for Uy, Initial residual = 0.0231375, Final residual = 0.00137411, No Iterations 2
DILUPBiCGStab:  Solving for Uz, Initial residual = 0.0241516, Final residual = 0.0015082, No Iterations 2
DICPCG:  Solving for p, Initial residual = 0.178379, Final residual = 0.017502, No Iterations 24
time step continuity errors : sum local = 6.76664e-05, global = 2.54548e-06, cumulative = 6.11718e-05
ExecutionTime = 444.985 s  ClockTime = 445 s

Time = 112s

DILUPBiCGStab:  Solving for Ux, Initial residual = 0.0202532, Final residual = 0.000934152, No Iterations 2
DILUPBiCGStab:  Solving for Uy, Initial residual = 0.0213737, Final residual = 0.00121039, No Iterations 2
DILUPBiCGStab:  Solving for Uz, Initial residual = 0.020917, Final residual = 0.00121345, No Iterations 2
DICPCG:  Solving for p, Initial residual = 0.170838, Final residual = 0.0170669, No Iterations 234
time step continuity errors : sum local = 6.76519e-05, global = -7.46436e-07, cumulative = 6.04254e-05
ExecutionTime = 451.09 s  ClockTime = 451 s

Time = 113s

DILUPBiCGStab:  Solving for Ux, Initial residual = 0.0101371, Final residual = 0.000618247, No Iterations 2
DILUPBiCGStab:  Solving for Uy, Initial residual = 0.0213015, Final residual = 0.00123652, No Iterations 2
DILUPBiCGStab:  Solving for Uz, Initial residual = 0.0224122, Final residual = 0.00132383, No Iterations 2
DICPCG:  Solving for p, Initial residual = 0.198352, Final residual = 0.0194344, No Iterations 24
time step continuity errors : sum local = 5.97107e-05, global = -9.09107e-06, cumulative = 5.13343e-05
ExecutionTime = 452.539 s  ClockTime = 453 s

Time = 114s

DILUPBiCGStab:  Solving for Ux, Initial residual = 0.00958906, Final residual = 0.000583297, No Iterations 2
DILUPBiCGStab:  Solving for Uy, Initial residual = 0.0200866, Final residual = 0.00114938, No Iterations 2
DILUPBiCGStab:  Solving for Uz, Initial residual = 0.0204038, Final residual = 0.0011882, No Iterations 2
DICPCG:  Solving for p, Initial residual = 0.19964, Final residual = 0.01991, No Iterations 248
time step continuity errors : sum local = 6.17544e-05, global = 4.11416e-08, cumulative = 5.13754e-05
ExecutionTime = 459.13 s  ClockTime = 459 s

Time = 115s

DILUPBiCGStab:  Solving for Ux, Initial residual = 0.00963265, Final residual = 0.000574119, No Iterations 2
DILUPBiCGStab:  Solving for Uy, Initial residual = 0.0201452, Final residual = 0.00117533, No Iterations 2
DILUPBiCGStab:  Solving for Uz, Initial residual = 0.0208028, Final residual = 0.00123889, No Iterations 2
DICPCG:  Solving for p, Initial residual = 0.269527, Final residual = 0.0266448, No Iterations 29
time step continuity errors : sum local = 6.37842e-05, global = 5.10003e-07, cumulative = 5.18854e-05
ExecutionTime = 460.667 s  ClockTime = 461 s

Time = 116s

DILUPBiCGStab:  Solving for Ux, Initial residual = 0.00930582, Final residual = 0.000552161, No Iterations 2
DILUPBiCGStab:  Solving for Uy, Initial residual = 0.0177237, Final residual = 0.00105879, No Iterations 2
DILUPBiCGStab:  Solving for Uz, Initial residual = 0.0196531, Final residual = 0.00112292, No Iterations 2
DICPCG:  Solving for p, Initial residual = 0.260036, Final residual = 0.0246912, No Iterations 223
time step continuity errors : sum local = 5.91704e-05, global = 6.63298e-07, cumulative = 5.25487e-05
ExecutionTime = 466.597 s  ClockTime = 467 s

Time = 117s

DILUPBiCGStab:  Solving for Ux, Initial residual = 0.00854411, Final residual = 0.000544496, No Iterations 2
DILUPBiCGStab:  Solving for Uy, Initial residual = 0.0190232, Final residual = 0.00112483, No Iterations 2
DILUPBiCGStab:  Solving for Uz, Initial residual = 0.021136, Final residual = 0.00123327, No Iterations 2
DICPCG:  Solving for p, Initial residual = 0.1945, Final residual = 0.0179991, No Iterations 14
time step continuity errors : sum local = 5.40213e-05, global = 6.04881e-06, cumulative = 5.85975e-05
ExecutionTime = 467.821 s  ClockTime = 468 s

Time = 118s

DILUPBiCGStab:  Solving for Ux, Initial residual = 0.00834611, Final residual = 0.000522078, No Iterations 2
DILUPBiCGStab:  Solving for Uy, Initial residual = 0.0181195, Final residual = 0.00108091, No Iterations 2
DILUPBiCGStab:  Solving for Uz, Initial residual = 0.0197394, Final residual = 0.00111063, No Iterations 2
DICPCG:  Solving for p, Initial residual = 0.190294, Final residual = 0.0186986, No Iterations 51
time step continuity errors : sum local = 5.58094e-05, global = 4.3286e-06, cumulative = 6.29261e-05
ExecutionTime = 469.87 s  ClockTime = 470 s

Time = 119s

DILUPBiCGStab:  Solving for Ux, Initial residual = 0.00787444, Final residual = 0.000501978, No Iterations 2
DILUPBiCGStab:  Solving for Uy, Initial residual = 0.0205701, Final residual = 0.00116387, No Iterations 2
DILUPBiCGStab:  Solving for Uz, Initial residual = 0.01947, Final residual = 0.00110305, No Iterations 2
DICPCG:  Solving for p, Initial residual = 0.185655, Final residual = 0.0176367, No Iterations 21
time step continuity errors : sum local = 5.31091e-05, global = 1.98732e-06, cumulative = 6.49135e-05
ExecutionTime = 471.246 s  ClockTime = 471 s

Time = 120s

DILUPBiCGStab:  Solving for Ux, Initial residual = 0.00770082, Final residual = 0.000490842, No Iterations 2
DILUPBiCGStab:  Solving for Uy, Initial residual = 0.0202361, Final residual = 0.00114618, No Iterations 2
DILUPBiCGStab:  Solving for Uz, Initial residual = 0.0189723, Final residual = 0.00106673, No Iterations 2
DICPCG:  Solving for p, Initial residual = 0.184808, Final residual = 0.0183834, No Iterations 71
time step continuity errors : sum local = 5.53421e-05, global = 1.86646e-06, cumulative = 6.67799e-05
ExecutionTime = 473.741 s  ClockTime = 474 s

Time = 121s

DILUPBiCGStab:  Solving for Ux, Initial residual = 0.00843936, Final residual = 0.000520396, No Iterations 2
DILUPBiCGStab:  Solving for Uy, Initial residual = 0.0186667, Final residual = 0.00110365, No Iterations 2
DILUPBiCGStab:  Solving for Uz, Initial residual = 0.0188259, Final residual = 0.00107108, No Iterations 2
DICPCG:  Solving for p, Initial residual = 0.186846, Final residual = 0.0183768, No Iterations 21
time step continuity errors : sum local = 5.57349e-05, global = -2.64202e-08, cumulative = 6.67535e-05
ExecutionTime = 475.109 s  ClockTime = 475 s

Time = 122s

DILUPBiCGStab:  Solving for Ux, Initial residual = 0.00831655, Final residual = 0.000505635, No Iterations 2
DILUPBiCGStab:  Solving for Uy, Initial residual = 0.017808, Final residual = 0.00106354, No Iterations 2
DILUPBiCGStab:  Solving for Uz, Initial residual = 0.0183623, Final residual = 0.00102889, No Iterations 2
DICPCG:  Solving for p, Initial residual = 0.185723, Final residual = 0.0184718, No Iterations 25
time step continuity errors : sum local = 5.62774e-05, global = -6.14522e-07, cumulative = 6.6139e-05
ExecutionTime = 476.568 s  ClockTime = 477 s

Time = 123s

DILUPBiCGStab:  Solving for Ux, Initial residual = 0.00816522, Final residual = 0.000501534, No Iterations 2
DILUPBiCGStab:  Solving for Uy, Initial residual = 0.0177037, Final residual = 0.00104658, No Iterations 2
DILUPBiCGStab:  Solving for Uz, Initial residual = 0.0185766, Final residual = 0.00103252, No Iterations 2
DICPCG:  Solving for p, Initial residual = 0.185294, Final residual = 0.0182799, No Iterations 54
time step continuity errors : sum local = 5.62231e-05, global = -2.14533e-06, cumulative = 6.39936e-05
ExecutionTime = 478.691 s  ClockTime = 479 s

Time = 124s

DILUPBiCGStab:  Solving for Ux, Initial residual = 0.00774399, Final residual = 0.000482788, No Iterations 2
DILUPBiCGStab:  Solving for Uy, Initial residual = 0.0192639, Final residual = 0.00109408, No Iterations 2
DILUPBiCGStab:  Solving for Uz, Initial residual = 0.0186708, Final residual = 0.00104384, No Iterations 2
DICPCG:  Solving for p, Initial residual = 0.184807, Final residual = 0.0181566, No Iterations 22
time step continuity errors : sum local = 5.61816e-05, global = -1.38996e-06, cumulative = 6.26037e-05
ExecutionTime = 480.088 s  ClockTime = 480 s

Time = 125s

DILUPBiCGStab:  Solving for Ux, Initial residual = 0.00743563, Final residual = 0.000468762, No Iterations 2
DILUPBiCGStab:  Solving for Uy, Initial residual = 0.0190694, Final residual = 0.00108828, No Iterations 2
DILUPBiCGStab:  Solving for Uz, Initial residual = 0.0185083, Final residual = 0.00103462, No Iterations 2
DICPCG:  Solving for p, Initial residual = 0.183519, Final residual = 0.0179779, No Iterations 77
time step continuity errors : sum local = 5.61579e-05, global = -1.65115e-06, cumulative = 6.09525e-05
ExecutionTime = 482.724 s  ClockTime = 483 s

Time = 126s

DILUPBiCGStab:  Solving for Ux, Initial residual = 0.00801144, Final residual = 0.000496323, No Iterations 2
DILUPBiCGStab:  Solving for Uy, Initial residual = 0.0190544, Final residual = 0.00109571, No Iterations 2
DILUPBiCGStab:  Solving for Uz, Initial residual = 0.0186305, Final residual = 0.00105817, No Iterations 2
DICPCG:  Solving for p, Initial residual = 0.184049, Final residual = 0.0177236, No Iterations 14
time step continuity errors : sum local = 5.58301e-05, global = -3.43971e-06, cumulative = 5.75128e-05
ExecutionTime = 483.931 s  ClockTime = 484 s

Time = 127s

DILUPBiCGStab:  Solving for Ux, Initial residual = 0.00787681, Final residual = 0.000482069, No Iterations 2
DILUPBiCGStab:  Solving for Uy, Initial residual = 0.0183349, Final residual = 0.00104648, No Iterations 2
DILUPBiCGStab:  Solving for Uz, Initial residual = 0.0180642, Final residual = 0.00102114, No Iterations 2
DICPCG:  Solving for p, Initial residual = 0.183515, Final residual = 0.0183436, No Iterations 23
time step continuity errors : sum local = 5.77179e-05, global = -3.89864e-06, cumulative = 5.36142e-05
ExecutionTime = 485.356 s  ClockTime = 486 s

Time = 128s

DILUPBiCGStab:  Solving for Ux, Initial residual = 0.00779932, Final residual = 0.00047875, No Iterations 2
DILUPBiCGStab:  Solving for Uy, Initial residual = 0.0177841, Final residual = 0.00101765, No Iterations 2
DILUPBiCGStab:  Solving for Uz, Initial residual = 0.0179142, Final residual = 0.00101512, No Iterations 2
DICPCG:  Solving for p, Initial residual = 0.183822, Final residual = 0.0181998, No Iterations 73
time step continuity errors : sum local = 5.73462e-05, global = -3.89661e-06, cumulative = 4.97176e-05
ExecutionTime = 487.887 s  ClockTime = 488 s

Time = 129s

DILUPBiCGStab:  Solving for Ux, Initial residual = 0.00816526, Final residual = 0.00049281, No Iterations 2
DILUPBiCGStab:  Solving for Uy, Initial residual = 0.0172313, Final residual = 0.00101775, No Iterations 2
DILUPBiCGStab:  Solving for Uz, Initial residual = 0.0186733, Final residual = 0.00107199, No Iterations 2
DICPCG:  Solving for p, Initial residual = 0.189958, Final residual = 0.0176172, No Iterations 23
time step continuity errors : sum local = 5.48813e-05, global = -5.69196e-06, cumulative = 4.40256e-05
ExecutionTime = 489.3 s  ClockTime = 490 s

Time = 130s

DILUPBiCGStab:  Solving for Ux, Initial residual = 0.00820169, Final residual = 0.00048512, No Iterations 2
DILUPBiCGStab:  Solving for Uy, Initial residual = 0.0165534, Final residual = 0.000983262, No Iterations 2
DILUPBiCGStab:  Solving for Uz, Initial residual = 0.0181719, Final residual = 0.00103117, No Iterations 2
DICPCG:  Solving for p, Initial residual = 0.188591, Final residual = 0.0187207, No Iterations 28
time step continuity errors : sum local = 5.85477e-05, global = -5.50314e-06, cumulative = 3.85225e-05
ExecutionTime = 490.839 s  ClockTime = 491 s

Time = 131s

DILUPBiCGStab:  Solving for Ux, Initial residual = 0.00814753, Final residual = 0.0004734, No Iterations 2
DILUPBiCGStab:  Solving for Uy, Initial residual = 0.017643, Final residual = 0.00102104, No Iterations 2
DILUPBiCGStab:  Solving for Uz, Initial residual = 0.0182231, Final residual = 0.00103677, No Iterations 2
DICPCG:  Solving for p, Initial residual = 0.188124, Final residual = 0.0178533, No Iterations 228
time step continuity errors : sum local = 5.59959e-05, global = 4.41453e-07, cumulative = 3.89639e-05
ExecutionTime = 496.912 s  ClockTime = 497 s

Time = 132s

DILUPBiCGStab:  Solving for Ux, Initial residual = 0.00847854, Final residual = 0.000473952, No Iterations 2
DILUPBiCGStab:  Solving for Uy, Initial residual = 0.0186689, Final residual = 0.00106069, No Iterations 2
DILUPBiCGStab:  Solving for Uz, Initial residual = 0.0185647, Final residual = 0.00106786, No Iterations 2
DICPCG:  Solving for p, Initial residual = 0.236629, Final residual = 0.0221019, No Iterations 14
time step continuity errors : sum local = 5.69815e-05, global = 1.52767e-06, cumulative = 4.04916e-05
ExecutionTime = 498.131 s  ClockTime = 498 s

Time = 133s

DILUPBiCGStab:  Solving for Ux, Initial residual = 0.00819979, Final residual = 0.000456788, No Iterations 2
DILUPBiCGStab:  Solving for Uy, Initial residual = 0.0178796, Final residual = 0.00100472, No Iterations 2
DILUPBiCGStab:  Solving for Uz, Initial residual = 0.0178013, Final residual = 0.00100658, No Iterations 2
DICPCG:  Solving for p, Initial residual = 0.232834, Final residual = 0.022549, No Iterations 41
time step continuity errors : sum local = 5.8408e-05, global = 5.93331e-06, cumulative = 4.64249e-05
ExecutionTime = 499.953 s  ClockTime = 500 s

Time = 134s

DILUPBiCGStab:  Solving for Ux, Initial residual = 0.00808936, Final residual = 0.000462504, No Iterations 2
DILUPBiCGStab:  Solving for Uy, Initial residual = 0.0187072, Final residual = 0.00103756, No Iterations 2
DILUPBiCGStab:  Solving for Uz, Initial residual = 0.0188773, Final residual = 0.0010517, No Iterations 2
DICPCG:  Solving for p, Initial residual = 0.229813, Final residual = 0.022676, No Iterations 225
time step continuity errors : sum local = 5.82334e-05, global = 4.272e-07, cumulative = 4.68521e-05
ExecutionTime = 505.934 s  ClockTime = 506 s

Time = 135s

DILUPBiCGStab:  Solving for Ux, Initial residual = 0.0121286, Final residual = 0.000607233, No Iterations 2
DILUPBiCGStab:  Solving for Uy, Initial residual = 0.0200791, Final residual = 0.00113803, No Iterations 2
DILUPBiCGStab:  Solving for Uz, Initial residual = 0.0210525, Final residual = 0.00122481, No Iterations 2
DICPCG:  Solving for p, Initial residual = 0.174209, Final residual = 0.01718, No Iterations 28
time step continuity errors : sum local = 6.31133e-05, global = 9.30218e-07, cumulative = 4.77823e-05
ExecutionTime = 507.47 s  ClockTime = 508 s

Time = 136s

DILUPBiCGStab:  Solving for Ux, Initial residual = 0.0118676, Final residual = 0.000570247, No Iterations 2
DILUPBiCGStab:  Solving for Uy, Initial residual = 0.0181105, Final residual = 0.00100435, No Iterations 2
DILUPBiCGStab:  Solving for Uz, Initial residual = 0.0188016, Final residual = 0.00106021, No Iterations 2
DICPCG:  Solving for p, Initial residual = 0.170061, Final residual = 0.0169339, No Iterations 89
time step continuity errors : sum local = 6.28392e-05, global = -1.08295e-06, cumulative = 4.66994e-05
ExecutionTime = 510.377 s  ClockTime = 511 s

Time = 137s

[...]
time step continuity errors : sum local = 0.000126862, global = -1.81037e-06, cumulative = 9.57992e-05
ExecutionTime = 1376.35 s  ClockTime = 1377 s

Time = 467s

DILUPBiCGStab:  Solving for Ux, Initial residual = 0.0112608, Final residual = 0.000622295, No Iterations 2
DILUPBiCGStab:  Solving for Uy, Initial residual = 0.0199302, Final residual = 0.00114882, No Iterations 2
DILUPBiCGStab:  Solving for Uz, Initial residual = 0.0180104, Final residual = 0.00118215, No Iterations 2
DICPCG:  Solving for p, Initial residual = 0.232899, Final residual = 0.0224673, No Iterations 76
time step continuity errors : sum local = 0.000118636, global = 1.17592e-05, cumulative = 0.000107558
ExecutionTime = 1378.97 s  ClockTime = 1379 s

Time = 468s

DILUPBiCGStab:  Solving for Ux, Initial residual = 0.010434, Final residual = 0.000609811, No Iterations 2
DILUPBiCGStab:  Solving for Uy, Initial residual = 0.0192811, Final residual = 0.00118304, No Iterations 2
DILUPBiCGStab:  Solving for Uz, Initial residual = 0.0187587, Final residual = 0.0013004, No Iterations 2
DICPCG:  Solving for p, Initial residual = 0.222834, Final residual = 0.022219, No Iterations 201
time step continuity errors : sum local = 0.000119984, global = 9.74702e-06, cumulative = 0.000117305
ExecutionTime = 1384.4 s  ClockTime = 1385 s

Time = 469s

DILUPBiCGStab:  Solving for Ux, Initial residual = 0.0113315, Final residual = 0.000654343, No Iterations 2
DILUPBiCGStab:  Solving for Uy, Initial residual = 0.019654, Final residual = 0.00119433, No Iterations 2
DILUPBiCGStab:  Solving for Uz, Initial residual = 0.0184284, Final residual = 0.00125873, No Iterations 2
DICPCG:  Solving for p, Initial residual = 0.164628, Final residual = 0.0163397, No Iterations 14
time step continuity errors : sum local = 0.000123894, global = 2.08815e-05, cumulative = 0.000138187
ExecutionTime = 1385.62 s  ClockTime = 1386 s

Time = 470s

DILUPBiCGStab:  Solving for Ux, Initial residual = 0.010706, Final residual = 0.000615918, No Iterations 2
DILUPBiCGStab:  Solving for Uy, Initial residual = 0.0184803, Final residual = 0.00110303, No Iterations 2
DILUPBiCGStab:  Solving for Uz, Initial residual = 0.0173886, Final residual = 0.00115183, No Iterations 2
DICPCG:  Solving for p, Initial residual = 0.165857, Final residual = 0.0162343, No Iterations 81
time step continuity errors : sum local = 0.00012012, global = 3.4254e-06, cumulative = 0.000141612
ExecutionTime = 1388.36 s  ClockTime = 1389 s

Time = 471s

DILUPBiCGStab:  Solving for Ux, Initial residual = 0.00904151, Final residual = 0.000549662, No Iterations 2
DILUPBiCGStab:  Solving for Uy, Initial residual = 0.0205731, Final residual = 0.00123247, No Iterations 2
DILUPBiCGStab:  Solving for Uz, Initial residual = 0.0181796, Final residual = 0.00121982, No Iterations 2
DICPCG:  Solving for p, Initial residual = 0.166077, Final residual = 0.016575, No Iterations 36
time step continuity errors : sum local = 0.000121466, global = 1.06373e-05, cumulative = 0.00015225
ExecutionTime = 1390.07 s  ClockTime = 1390 s

Time = 472s

DILUPBiCGStab:  Solving for Ux, Initial residual = 0.00935811, Final residual = 0.000574145, No Iterations 2
DILUPBiCGStab:  Solving for Uy, Initial residual = 0.0210496, Final residual = 0.00122341, No Iterations 2
DILUPBiCGStab:  Solving for Uz, Initial residual = 0.0172805, Final residual = 0.00115732, No Iterations 2
DICPCG:  Solving for p, Initial residual = 0.166225, Final residual = 0.0164548, No Iterations 29
time step continuity errors : sum local = 0.000125562, global = -1.25382e-06, cumulative = 0.000150996
ExecutionTime = 1391.62 s  ClockTime = 1392 s

Time = 473s

DILUPBiCGStab:  Solving for Ux, Initial residual = 0.00883563, Final residual = 0.000542162, No Iterations 2
DILUPBiCGStab:  Solving for Uy, Initial residual = 0.0198149, Final residual = 0.00116618, No Iterations 2
DILUPBiCGStab:  Solving for Uz, Initial residual = 0.0171773, Final residual = 0.0011315, No Iterations 2
DICPCG:  Solving for p, Initial residual = 0.164328, Final residual = 0.016336, No Iterations 33
time step continuity errors : sum local = 0.000124954, global = -8.51198e-06, cumulative = 0.000142484
ExecutionTime = 1393.27 s  ClockTime = 1394 s

Time = 474s

DILUPBiCGStab:  Solving for Ux, Initial residual = 0.00903161, Final residual = 0.000568891, No Iterations 2
DILUPBiCGStab:  Solving for Uy, Initial residual = 0.0196992, Final residual = 0.00117028, No Iterations 2
DILUPBiCGStab:  Solving for Uz, Initial residual = 0.0174077, Final residual = 0.00114945, No Iterations 2
DICPCG:  Solving for p, Initial residual = 0.167585, Final residual = 0.0167038, No Iterations 59
time step continuity errors : sum local = 0.000126776, global = -6.31482e-06, cumulative = 0.000136169
ExecutionTime = 1395.49 s  ClockTime = 1396 s

Time = 475s

DILUPBiCGStab:  Solving for Ux, Initial residual = 0.00972058, Final residual = 0.000604286, No Iterations 2
DILUPBiCGStab:  Solving for Uy, Initial residual = 0.020209, Final residual = 0.00120532, No Iterations 2
DILUPBiCGStab:  Solving for Uz, Initial residual = 0.0173893, Final residual = 0.00117964, No Iterations 2
DICPCG:  Solving for p, Initial residual = 0.169576, Final residual = 0.0162312, No Iterations 24
time step continuity errors : sum local = 0.000124326, global = -1.04565e-05, cumulative = 0.000125713
ExecutionTime = 1396.94 s  ClockTime = 1397 s

Time = 476s

DILUPBiCGStab:  Solving for Ux, Initial residual = 0.00919267, Final residual = 0.000585902, No Iterations 2
DILUPBiCGStab:  Solving for Uy, Initial residual = 0.0198484, Final residual = 0.0011801, No Iterations 2
DILUPBiCGStab:  Solving for Uz, Initial residual = 0.0169505, Final residual = 0.00115007, No Iterations 2
DICPCG:  Solving for p, Initial residual = 0.168124, Final residual = 0.016738, No Iterations 39
time step continuity errors : sum local = 0.00012774, global = -1.39661e-05, cumulative = 0.000111746
ExecutionTime = 1398.72 s  ClockTime = 1399 s

Time = 477s

DILUPBiCGStab:  Solving for Ux, Initial residual = 0.00879168, Final residual = 0.000560654, No Iterations 2
DILUPBiCGStab:  Solving for Uy, Initial residual = 0.0209391, Final residual = 0.0012377, No Iterations 2
DILUPBiCGStab:  Solving for Uz, Initial residual = 0.0168704, Final residual = 0.00111891, No Iterations 2
DICPCG:  Solving for p, Initial residual = 0.170152, Final residual = 0.0165861, No Iterations 54
time step continuity errors : sum local = 0.000124545, global = -1.66572e-05, cumulative = 9.50893e-05
ExecutionTime = 1400.84 s  ClockTime = 1401 s

Time = 478s

DILUPBiCGStab:  Solving for Ux, Initial residual = 0.00822527, Final residual = 0.000540859, No Iterations 2
DILUPBiCGStab:  Solving for Uy, Initial residual = 0.0202761, Final residual = 0.00119906, No Iterations 2
DILUPBiCGStab:  Solving for Uz, Initial residual = 0.0167762, Final residual = 0.00114516, No Iterations 2
DICPCG:  Solving for p, Initial residual = 0.170893, Final residual = 0.0168259, No Iterations 46
time step continuity errors : sum local = 0.000124535, global = -1.33677e-05, cumulative = 8.17216e-05
ExecutionTime = 1402.78 s  ClockTime = 1403 s

Time = 479s

DILUPBiCGStab:  Solving for Ux, Initial residual = 0.00744333, Final residual = 0.000485548, No Iterations 2
DILUPBiCGStab:  Solving for Uy, Initial residual = 0.019644, Final residual = 0.00116796, No Iterations 2
DILUPBiCGStab:  Solving for Uz, Initial residual = 0.0166648, Final residual = 0.00111344, No Iterations 2
DICPCG:  Solving for p, Initial residual = 0.165984, Final residual = 0.0158001, No Iterations 48
time step continuity errors : sum local = 0.000117931, global = -1.09298e-05, cumulative = 7.07918e-05
ExecutionTime = 1404.77 s  ClockTime = 1405 s

Time = 480s

DILUPBiCGStab:  Solving for Ux, Initial residual = 0.00756614, Final residual = 0.000524957, No Iterations 2
DILUPBiCGStab:  Solving for Uy, Initial residual = 0.0198828, Final residual = 0.00117538, No Iterations 2
DILUPBiCGStab:  Solving for Uz, Initial residual = 0.0163648, Final residual = 0.00116268, No Iterations 2
DICPCG:  Solving for p, Initial residual = 0.162365, Final residual = 0.0161555, No Iterations 10
time step continuity errors : sum local = 0.000121983, global = -1.3699e-05, cumulative = 5.70928e-05
ExecutionTime = 1405.89 s  ClockTime = 1406 s

Time = 481s

DILUPBiCGStab:  Solving for Ux, Initial residual = 0.00733306, Final residual = 0.000484572, No Iterations 2
DILUPBiCGStab:  Solving for Uy, Initial residual = 0.0192789, Final residual = 0.0011326, No Iterations 2
DILUPBiCGStab:  Solving for Uz, Initial residual = 0.0158885, Final residual = 0.00107784, No Iterations 2
DICPCG:  Solving for p, Initial residual = 0.159815, Final residual = 0.0149158, No Iterations 19
time step continuity errors : sum local = 0.000112598, global = -9.63628e-06, cumulative = 4.74565e-05
ExecutionTime = 1407.22 s  ClockTime = 1408 s

Time = 482s

DILUPBiCGStab:  Solving for Ux, Initial residual = 0.00715461, Final residual = 0.000470668, No Iterations 2
DILUPBiCGStab:  Solving for Uy, Initial residual = 0.0191572, Final residual = 0.0011257, No Iterations 2
DILUPBiCGStab:  Solving for Uz, Initial residual = 0.0161711, Final residual = 0.00108196, No Iterations 2
DICPCG:  Solving for p, Initial residual = 0.159018, Final residual = 0.0158609, No Iterations 81
time step continuity errors : sum local = 0.000119504, global = -3.49207e-06, cumulative = 4.39644e-05
ExecutionTime = 1409.96 s  ClockTime = 1410 s

Time = 483s

DILUPBiCGStab:  Solving for Ux, Initial residual = 0.00754682, Final residual = 0.000510265, No Iterations 2
DILUPBiCGStab:  Solving for Uy, Initial residual = 0.0195658, Final residual = 0.00116474, No Iterations 2
DILUPBiCGStab:  Solving for Uz, Initial residual = 0.016447, Final residual = 0.00114064, No Iterations 2
DICPCG:  Solving for p, Initial residual = 0.163173, Final residual = 0.0158927, No Iterations 16
time step continuity errors : sum local = 0.000118952, global = -1.9294e-06, cumulative = 4.2035e-05
ExecutionTime = 1411.22 s  ClockTime = 1412 s

Time = 484s

DILUPBiCGStab:  Solving for Ux, Initial residual = 0.00737298, Final residual = 0.000500318, No Iterations 2
DILUPBiCGStab:  Solving for Uy, Initial residual = 0.0186635, Final residual = 0.00109972, No Iterations 2
DILUPBiCGStab:  Solving for Uz, Initial residual = 0.0158058, Final residual = 0.00108265, No Iterations 2
DICPCG:  Solving for p, Initial residual = 0.161692, Final residual = 0.0156693, No Iterations 191
time step continuity errors : sum local = 0.000118012, global = -9.01571e-06, cumulative = 3.30193e-05
ExecutionTime = 1416.43 s  ClockTime = 1417 s

Time = 485s

DILUPBiCGStab:  Solving for Ux, Initial residual = 0.00921324, Final residual = 0.000595803, No Iterations 2
DILUPBiCGStab:  Solving for Uy, Initial residual = 0.0192879, Final residual = 0.00117087, No Iterations 2
DILUPBiCGStab:  Solving for Uz, Initial residual = 0.0163494, Final residual = 0.00115085, No Iterations 2
DICPCG:  Solving for p, Initial residual = 0.2137, Final residual = 0.0209258, No Iterations 28
time step continuity errors : sum local = 0.000122843, global = -4.97175e-06, cumulative = 2.80476e-05
ExecutionTime = 1417.96 s  ClockTime = 1418 s

Time = 486s

DILUPBiCGStab:  Solving for Ux, Initial residual = 0.00941033, Final residual = 0.000599795, No Iterations 2
DILUPBiCGStab:  Solving for Uy, Initial residual = 0.0187254, Final residual = 0.0011079, No Iterations 2
DILUPBiCGStab:  Solving for Uz, Initial residual = 0.0158916, Final residual = 0.00110717, No Iterations 2
DICPCG:  Solving for p, Initial residual = 0.215419, Final residual = 0.0208662, No Iterations 61
time step continuity errors : sum local = 0.000123127, global = -2.56829e-06, cumulative = 2.54793e-05
ExecutionTime = 1420.24 s  ClockTime = 1421 s

Time = 487s

DILUPBiCGStab:  Solving for Ux, Initial residual = 0.00919073, Final residual = 0.00060101, No Iterations 2
DILUPBiCGStab:  Solving for Uy, Initial residual = 0.0189212, Final residual = 0.00113615, No Iterations 2
DILUPBiCGStab:  Solving for Uz, Initial residual = 0.0162937, Final residual = 0.00114431, No Iterations 2
DICPCG:  Solving for p, Initial residual = 0.224744, Final residual = 0.0223457, No Iterations 90
time step continuity errors : sum local = 0.000131212, global = 1.74287e-05, cumulative = 4.2908e-05
ExecutionTime = 1423.17 s  ClockTime = 1424 s

Time = 488s

DILUPBiCGStab:  Solving for Ux, Initial residual = 0.00879675, Final residual = 0.000574262, No Iterations 2
DILUPBiCGStab:  Solving for Uy, Initial residual = 0.0187621, Final residual = 0.00114107, No Iterations 2
DILUPBiCGStab:  Solving for Uz, Initial residual = 0.0165632, Final residual = 0.00115809, No Iterations 2
DICPCG:  Solving for p, Initial residual = 0.225026, Final residual = 0.0223245, No Iterations 11
time step continuity errors : sum local = 0.0001387, global = 1.9332e-05, cumulative = 6.224e-05
ExecutionTime = 1424.32 s  ClockTime = 1425 s

Time = 489s

DILUPBiCGStab:  Solving for Ux, Initial residual = 0.00865238, Final residual = 0.000571022, No Iterations 2
DILUPBiCGStab:  Solving for Uy, Initial residual = 0.0183767, Final residual = 0.00109604, No Iterations 2
DILUPBiCGStab:  Solving for Uz, Initial residual = 0.0162936, Final residual = 0.00113987, No Iterations 2
DICPCG:  Solving for p, Initial residual = 0.227622, Final residual = 0.022688, No Iterations 226
time step continuity errors : sum local = 0.000142558, global = -3.57305e-06, cumulative = 5.86669e-05
ExecutionTime = 1430.3 s  ClockTime = 1431 s

Time = 490s

DILUPBiCGStab:  Solving for Ux, Initial residual = 0.0106, Final residual = 0.000692267, No Iterations 2
DILUPBiCGStab:  Solving for Uy, Initial residual = 0.0213808, Final residual = 0.00130206, No Iterations 2
DILUPBiCGStab:  Solving for Uz, Initial residual = 0.0173099, Final residual = 0.00128306, No Iterations 2
DICPCG:  Solving for p, Initial residual = 0.157239, Final residual = 0.0156723, No Iterations 16
time step continuity errors : sum local = 0.000155449, global = 9.69028e-06, cumulative = 6.83572e-05
ExecutionTime = 1431.57 s  ClockTime = 1432 s

Time = 491s

DILUPBiCGStab:  Solving for Ux, Initial residual = 0.0103415, Final residual = 0.000647143, No Iterations 2
DILUPBiCGStab:  Solving for Uy, Initial residual = 0.0201055, Final residual = 0.00121821, No Iterations 2
DILUPBiCGStab:  Solving for Uz, Initial residual = 0.0164256, Final residual = 0.00114728, No Iterations 2
DICPCG:  Solving for p, Initial residual = 0.145163, Final residual = 0.0141204, No Iterations 21
time step continuity errors : sum local = 0.000152031, global = -1.66291e-05, cumulative = 5.17281e-05
ExecutionTime = 1432.94 s  ClockTime = 1433 s

Time = 492s

DILUPBiCGStab:  Solving for Ux, Initial residual = 0.0103536, Final residual = 0.000667087, No Iterations 2
DILUPBiCGStab:  Solving for Uy, Initial residual = 0.0200389, Final residual = 0.00117687, No Iterations 2
DILUPBiCGStab:  Solving for Uz, Initial residual = 0.0163737, Final residual = 0.00121832, No Iterations 2
DICPCG:  Solving for p, Initial residual = 0.152358, Final residual = 0.0152141, No Iterations 169
time step continuity errors : sum local = 0.00015209, global = 1.4295e-05, cumulative = 6.60231e-05
ExecutionTime = 1437.65 s  ClockTime = 1438 s

Time = 493s

DILUPBiCGStab:  Solving for Ux, Initial residual = 0.00974217, Final residual = 0.000654348, No Iterations 2
DILUPBiCGStab:  Solving for Uy, Initial residual = 0.0209139, Final residual = 0.00126189, No Iterations 2
DILUPBiCGStab:  Solving for Uz, Initial residual = 0.0171085, Final residual = 0.00127017, No Iterations 2
DICPCG:  Solving for p, Initial residual = 0.20588, Final residual = 0.0198108, No Iterations 26
time step continuity errors : sum local = 0.000146952, global = -4.04599e-06, cumulative = 6.19771e-05
ExecutionTime = 1439.14 s  ClockTime = 1439 s

Time = 494s

DILUPBiCGStab:  Solving for Ux, Initial residual = 0.00959269, Final residual = 0.000622302, No Iterations 2
DILUPBiCGStab:  Solving for Uy, Initial residual = 0.0195031, Final residual = 0.00116138, No Iterations 2
DILUPBiCGStab:  Solving for Uz, Initial residual = 0.0161615, Final residual = 0.00117702, No Iterations 2
DICPCG:  Solving for p, Initial residual = 0.208605, Final residual = 0.0206403, No Iterations 74
time step continuity errors : sum local = 0.000153838, global = -9.19753e-06, cumulative = 5.27796e-05
ExecutionTime = 1441.71 s  ClockTime = 1442 s

Time = 495s

DILUPBiCGStab:  Solving for Ux, Initial residual = 0.00975303, Final residual = 0.000646108, No Iterations 2
DILUPBiCGStab:  Solving for Uy, Initial residual = 0.0204479, Final residual = 0.00124609, No Iterations 2
DILUPBiCGStab:  Solving for Uz, Initial residual = 0.0165246, Final residual = 0.00124318, No Iterations 2
DICPCG:  Solving for p, Initial residual = 0.212569, Final residual = 0.0209705, No Iterations 34
time step continuity errors : sum local = 0.000149491, global = 2.04653e-05, cumulative = 7.32449e-05
ExecutionTime = 1443.38 s  ClockTime = 1444 s

Time = 496s

DILUPBiCGStab:  Solving for Ux, Initial residual = 0.00954443, Final residual = 0.000639108, No Iterations 2
DILUPBiCGStab:  Solving for Uy, Initial residual = 0.019877, Final residual = 0.0012029, No Iterations 2
DILUPBiCGStab:  Solving for Uz, Initial residual = 0.0160997, Final residual = 0.00120451, No Iterations 2
DICPCG:  Solving for p, Initial residual = 0.203067, Final residual = 0.0201531, No Iterations 55
time step continuity errors : sum local = 0.000147434, global = 2.44457e-05, cumulative = 9.76906e-05
ExecutionTime = 1445.52 s  ClockTime = 1446 s

Time = 497s

DILUPBiCGStab:  Solving for Ux, Initial residual = 0.00854634, Final residual = 0.0005749, No Iterations 2
DILUPBiCGStab:  Solving for Uy, Initial residual = 0.0199871, Final residual = 0.00121809, No Iterations 2
DILUPBiCGStab:  Solving for Uz, Initial residual = 0.015963, Final residual = 0.00116789, No Iterations 2
DICPCG:  Solving for p, Initial residual = 0.190035, Final residual = 0.0188202, No Iterations 24
time step continuity errors : sum local = 0.000143683, global = 2.06644e-05, cumulative = 0.000118355
ExecutionTime = 1446.96 s  ClockTime = 1447 s

Time = 498s

DILUPBiCGStab:  Solving for Ux, Initial residual = 0.00833713, Final residual = 0.000568357, No Iterations 2
DILUPBiCGStab:  Solving for Uy, Initial residual = 0.0196856, Final residual = 0.00118945, No Iterations 2
DILUPBiCGStab:  Solving for Uz, Initial residual = 0.0159874, Final residual = 0.00120052, No Iterations 2
DICPCG:  Solving for p, Initial residual = 0.190926, Final residual = 0.0188781, No Iterations 175
time step continuity errors : sum local = 0.000142944, global = 2.2125e-05, cumulative = 0.00014048
ExecutionTime = 1451.82 s  ClockTime = 1452 s

Time = 499s

DILUPBiCGStab:  Solving for Ux, Initial residual = 0.014819, Final residual = 0.000879764, No Iterations 2
DILUPBiCGStab:  Solving for Uy, Initial residual = 0.0226365, Final residual = 0.00141685, No Iterations 2
DILUPBiCGStab:  Solving for Uz, Initial residual = 0.0169246, Final residual = 0.00131663, No Iterations 2
DICPCG:  Solving for p, Initial residual = 0.132489, Final residual = 0.0130275, No Iterations 14
time step continuity errors : sum local = 0.000161114, global = 2.27582e-05, cumulative = 0.000163238
ExecutionTime = 1453.04 s  ClockTime = 1453 s

Time = 500s

DILUPBiCGStab:  Solving for Ux, Initial residual = 0.0145553, Final residual = 0.000834394, No Iterations 2
DILUPBiCGStab:  Solving for Uy, Initial residual = 0.0207888, Final residual = 0.00123792, No Iterations 2
DILUPBiCGStab:  Solving for Uz, Initial residual = 0.0152291, Final residual = 0.00113999, No Iterations 2
DICPCG:  Solving for p, Initial residual = 0.124217, Final residual = 0.0122732, No Iterations 61
time step continuity errors : sum local = 0.000158276, global = -1.53434e-06, cumulative = 0.000161704
ExecutionTime = 1456.13 s  ClockTime = 1456 s

End

