/*---------------------------------------------------------------------------*\
  =========                 |
  \\      /  F ield         | OpenFOAM: The Open Source CFD Toolbox
   \\    /   O peration     | Website:  https://openfoam.org
    \\  /    A nd           | Version:  11
     \\/     M anipulation  |
\*---------------------------------------------------------------------------*/
Build  : 11
Exec   : foamRun -parallel
Date   : Nov 01 2024
Time   : 03:28:29
Host   : "skynet-linux"
PID    : 33224
I/O    : uncollated
Case   : /home/humberto/casesXCALibre/BFS_3D_5mm_OF11
nProcs : 2
Slaves : 1("skynet-linux.33225")
Pstream initialised with:
    floatTransfer      : false
    nProcsSimpleSum    : 0
    commsType          : nonBlocking
    polling iterations : 0
sigFpe : Enabling floating point exception trapping (FOAM_SIGFPE).
fileModificationChecking : Monitoring run-time modified files using timeStampMaster (fileModificationSkew 10)
allowSystemOperations : Allowing user-supplied system call operations

// * * * * * * * * * * * * * * * * * * * * * * * * * * * * * * * * * * * * * //
Create time

Create mesh for time = 0

Selecting solver incompressibleFluid
Selecting viscosity model constant
Selecting turbulence model type laminar
Selecting laminar stress model Stokes
No MRF models present


SIMPLE: Convergence criteria found
        p: tolerance 1e-07
        U: tolerance 1e-07
        "(k|epsilon|omega|f|v2)": tolerance 1e-07


SIMPLE: Operating solver in steady-state mode with 1 outer corrector
SIMPLE: Operating solver in SIMPLE mode



Starting time loop

Time = 1s

diagonalPBiCGStab:  Solving for Ux, Initial residual = 1, Final residual = 0.0793449, No Iterations 9
diagonalPBiCGStab:  Solving for Uy, Initial residual = 1, Final residual = 0.0995826, No Iterations 3
diagonalPBiCGStab:  Solving for Uz, Initial residual = 1, Final residual = 0.0757627, No Iterations 3
diagonalPCG:  Solving for p, Initial residual = 1, Final residual = 0.0981572, No Iterations 855
time step continuity errors : sum local = 2.7688e-05, global = 9.74797e-08, cumulative = 9.74797e-08
ExecutionTime = 7.74035 s  ClockTime = 7 s

Time = 2s

diagonalPBiCGStab:  Solving for Ux, Initial residual = 0.878753, Final residual = 0.05651, No Iterations 3
diagonalPBiCGStab:  Solving for Uy, Initial residual = 0.448002, Final residual = 0.0380791, No Iterations 5
diagonalPBiCGStab:  Solving for Uz, Initial residual = 0.3807, Final residual = 0.0287355, No Iterations 5
diagonalPCG:  Solving for p, Initial residual = 0.211195, Final residual = 0.0208321, No Iterations 555
time step continuity errors : sum local = 0.00179411, global = -2.10641e-05, cumulative = -2.09667e-05
ExecutionTime = 12.542 s  ClockTime = 12 s

Time = 3s

diagonalPBiCGStab:  Solving for Ux, Initial residual = 0.269029, Final residual = 0.0228791, No Iterations 5
diagonalPBiCGStab:  Solving for Uy, Initial residual = 0.391173, Final residual = 0.0153307, No Iterations 6
diagonalPBiCGStab:  Solving for Uz, Initial residual = 0.501746, Final residual = 0.0410763, No Iterations 3
diagonalPCG:  Solving for p, Initial residual = 0.310712, Final residual = 0.0302415, No Iterations 773
time step continuity errors : sum local = 0.000525433, global = 5.00289e-06, cumulative = -1.59638e-05
ExecutionTime = 19.0315 s  ClockTime = 19 s

Time = 4s

diagonalPBiCGStab:  Solving for Ux, Initial residual = 0.513826, Final residual = 0.0426309, No Iterations 3
diagonalPBiCGStab:  Solving for Uy, Initial residual = 0.323728, Final residual = 0.0309885, No Iterations 5
diagonalPBiCGStab:  Solving for Uz, Initial residual = 0.386445, Final residual = 0.0329888, No Iterations 3
diagonalPCG:  Solving for p, Initial residual = 0.263267, Final residual = 0.0263236, No Iterations 122
time step continuity errors : sum local = 0.00138252, global = 1.8582e-05, cumulative = 2.61822e-06
ExecutionTime = 20.5109 s  ClockTime = 20 s

Time = 5s

diagonalPBiCGStab:  Solving for Ux, Initial residual = 0.613033, Final residual = 0.0467361, No Iterations 3
diagonalPBiCGStab:  Solving for Uy, Initial residual = 0.234627, Final residual = 0.0161174, No Iterations 5
diagonalPBiCGStab:  Solving for Uz, Initial residual = 0.165719, Final residual = 0.00880809, No Iterations 5
diagonalPCG:  Solving for p, Initial residual = 0.270357, Final residual = 0.0267886, No Iterations 551
time step continuity errors : sum local = 0.00137706, global = -2.51564e-06, cumulative = 1.02577e-07
ExecutionTime = 25.3179 s  ClockTime = 25 s

Time = 6s

diagonalPBiCGStab:  Solving for Ux, Initial residual = 0.315717, Final residual = 0.0269054, No Iterations 5
diagonalPBiCGStab:  Solving for Uy, Initial residual = 0.452814, Final residual = 0.0322969, No Iterations 5
diagonalPBiCGStab:  Solving for Uz, Initial residual = 0.490447, Final residual = 0.0483673, No Iterations 5
diagonalPCG:  Solving for p, Initial residual = 0.63678, Final residual = 0.0632528, No Iterations 756
time step continuity errors : sum local = 0.000671896, global = -4.57169e-06, cumulative = -4.46911e-06
ExecutionTime = 31.6552 s  ClockTime = 31 s

Time = 7s

diagonalPBiCGStab:  Solving for Ux, Initial residual = 0.662537, Final residual = 0.0633455, No Iterations 3
diagonalPBiCGStab:  Solving for Uy, Initial residual = 0.304775, Final residual = 0.0249462, No Iterations 5
diagonalPBiCGStab:  Solving for Uz, Initial residual = 0.368056, Final residual = 0.0226006, No Iterations 5
diagonalPCG:  Solving for p, Initial residual = 0.29941, Final residual = 0.0299291, No Iterations 347
time step continuity errors : sum local = 0.000879892, global = -6.48697e-05, cumulative = -6.93388e-05
ExecutionTime = 34.8653 s  ClockTime = 35 s

Time = 8s

diagonalPBiCGStab:  Solving for Ux, Initial residual = 0.687998, Final residual = 0.0535184, No Iterations 3
diagonalPBiCGStab:  Solving for Uy, Initial residual = 0.281649, Final residual = 0.0200482, No Iterations 5
diagonalPBiCGStab:  Solving for Uz, Initial residual = 0.211552, Final residual = 0.00849205, No Iterations 6
diagonalPCG:  Solving for p, Initial residual = 0.325084, Final residual = 0.0321522, No Iterations 654
time step continuity errors : sum local = 0.000845756, global = -7.2347e-06, cumulative = -7.65735e-05
ExecutionTime = 40.4034 s  ClockTime = 40 s

Time = 9s

diagonalPBiCGStab:  Solving for Ux, Initial residual = 0.304203, Final residual = 0.0277156, No Iterations 4
diagonalPBiCGStab:  Solving for Uy, Initial residual = 0.355293, Final residual = 0.0272644, No Iterations 5
diagonalPBiCGStab:  Solving for Uz, Initial residual = 0.430818, Final residual = 0.0392179, No Iterations 5
diagonalPCG:  Solving for p, Initial residual = 0.338467, Final residual = 0.0337228, No Iterations 759
time step continuity errors : sum local = 0.000604071, global = 5.54582e-06, cumulative = -7.10277e-05
ExecutionTime = 46.7652 s  ClockTime = 46 s

Time = 10s

diagonalPBiCGStab:  Solving for Ux, Initial residual = 0.42674, Final residual = 0.0338856, No Iterations 3
diagonalPBiCGStab:  Solving for Uy, Initial residual = 0.211338, Final residual = 0.0174642, No Iterations 4
diagonalPBiCGStab:  Solving for Uz, Initial residual = 0.256728, Final residual = 0.0216575, No Iterations 4
diagonalPCG:  Solving for p, Initial residual = 0.260275, Final residual = 0.0254997, No Iterations 717
time step continuity errors : sum local = 0.000829295, global = 3.39748e-06, cumulative = -6.76302e-05
ExecutionTime = 52.724 s  ClockTime = 52 s

Time = 11s

diagonalPBiCGStab:  Solving for Ux, Initial residual = 0.265721, Final residual = 0.0174768, No Iterations 4
diagonalPBiCGStab:  Solving for Uy, Initial residual = 0.287765, Final residual = 0.028223, No Iterations 5
diagonalPBiCGStab:  Solving for Uz, Initial residual = 0.268314, Final residual = 0.0249967, No Iterations 5
diagonalPCG:  Solving for p, Initial residual = 0.324669, Final residual = 0.0324058, No Iterations 705
time step continuity errors : sum local = 0.000545969, global = 5.27147e-06, cumulative = -6.23587e-05
ExecutionTime = 58.6072 s  ClockTime = 58 s

Time = 12s

diagonalPBiCGStab:  Solving for Ux, Initial residual = 0.497433, Final residual = 0.0328468, No Iterations 4
diagonalPBiCGStab:  Solving for Uy, Initial residual = 0.343795, Final residual = 0.0333816, No Iterations 5
diagonalPBiCGStab:  Solving for Uz, Initial residual = 0.384681, Final residual = 0.0327365, No Iterations 5
diagonalPCG:  Solving for p, Initial residual = 0.330207, Final residual = 0.0329899, No Iterations 341
time step continuity errors : sum local = 0.000672391, global = 3.52392e-05, cumulative = -2.71196e-05
ExecutionTime = 61.7935 s  ClockTime = 61 s

Time = 13s

diagonalPBiCGStab:  Solving for Ux, Initial residual = 0.620053, Final residual = 0.0588577, No Iterations 3
diagonalPBiCGStab:  Solving for Uy, Initial residual = 0.187634, Final residual = 0.00846683, No Iterations 6
diagonalPBiCGStab:  Solving for Uz, Initial residual = 0.22192, Final residual = 0.0196058, No Iterations 5
diagonalPCG:  Solving for p, Initial residual = 0.330489, Final residual = 0.0328566, No Iterations 619
time step continuity errors : sum local = 0.000593502, global = -4.99792e-06, cumulative = -3.21175e-05
ExecutionTime = 67.0859 s  ClockTime = 67 s

Time = 14s

diagonalPBiCGStab:  Solving for Ux, Initial residual = 0.293995, Final residual = 0.0216124, No Iterations 4
diagonalPBiCGStab:  Solving for Uy, Initial residual = 0.253325, Final residual = 0.020273, No Iterations 5
diagonalPBiCGStab:  Solving for Uz, Initial residual = 0.299489, Final residual = 0.0249405, No Iterations 5
diagonalPCG:  Solving for p, Initial residual = 0.530021, Final residual = 0.0527804, No Iterations 699
time step continuity errors : sum local = 0.000417228, global = 2.56034e-07, cumulative = -3.18614e-05
ExecutionTime = 72.9524 s  ClockTime = 73 s

Time = 15s

diagonalPBiCGStab:  Solving for Ux, Initial residual = 0.232, Final residual = 0.0224517, No Iterations 3
diagonalPBiCGStab:  Solving for Uy, Initial residual = 0.242543, Final residual = 0.0233446, No Iterations 5
diagonalPBiCGStab:  Solving for Uz, Initial residual = 0.312978, Final residual = 0.0233157, No Iterations 5
diagonalPCG:  Solving for p, Initial residual = 0.348758, Final residual = 0.0347623, No Iterations 318
time step continuity errors : sum local = 0.00045112, global = -2.52026e-06, cumulative = -3.43817e-05
ExecutionTime = 75.952 s  ClockTime = 76 s

Time = 16s

diagonalPBiCGStab:  Solving for Ux, Initial residual = 0.197206, Final residual = 0.0159515, No Iterations 3
diagonalPBiCGStab:  Solving for Uy, Initial residual = 0.151427, Final residual = 0.012157, No Iterations 5
diagonalPBiCGStab:  Solving for Uz, Initial residual = 0.209832, Final residual = 0.0140571, No Iterations 5
diagonalPCG:  Solving for p, Initial residual = 0.347147, Final residual = 0.0344005, No Iterations 738
time step continuity errors : sum local = 0.000416995, global = -2.70625e-06, cumulative = -3.7088e-05
ExecutionTime = 82.158 s  ClockTime = 82 s

Time = 17s

diagonalPBiCGStab:  Solving for Ux, Initial residual = 0.175205, Final residual = 0.0135803, No Iterations 4
diagonalPBiCGStab:  Solving for Uy, Initial residual = 0.196836, Final residual = 0.0154847, No Iterations 5
diagonalPBiCGStab:  Solving for Uz, Initial residual = 0.258009, Final residual = 0.0226779, No Iterations 4
diagonalPCG:  Solving for p, Initial residual = 0.683728, Final residual = 0.0678656, No Iterations 631
time step continuity errors : sum local = 0.000350918, global = -4.09968e-06, cumulative = -4.11876e-05
ExecutionTime = 87.5296 s  ClockTime = 87 s

Time = 18s

diagonalPBiCGStab:  Solving for Ux, Initial residual = 0.373834, Final residual = 0.0303389, No Iterations 3
diagonalPBiCGStab:  Solving for Uy, Initial residual = 0.191453, Final residual = 0.0165668, No Iterations 5
diagonalPBiCGStab:  Solving for Uz, Initial residual = 0.25393, Final residual = 0.0253204, No Iterations 5
diagonalPCG:  Solving for p, Initial residual = 0.359135, Final residual = 0.0357633, No Iterations 281
time step continuity errors : sum local = 0.000397994, global = -8.16532e-06, cumulative = -4.9353e-05
ExecutionTime = 90.2351 s  ClockTime = 90 s

Time = 19s

diagonalPBiCGStab:  Solving for Ux, Initial residual = 0.397996, Final residual = 0.0296214, No Iterations 3
diagonalPBiCGStab:  Solving for Uy, Initial residual = 0.140252, Final residual = 0.0128647, No Iterations 5
diagonalPBiCGStab:  Solving for Uz, Initial residual = 0.195411, Final residual = 0.0177469, No Iterations 5
diagonalPCG:  Solving for p, Initial residual = 0.346792, Final residual = 0.0345916, No Iterations 744
time step continuity errors : sum local = 0.000350673, global = 7.82068e-07, cumulative = -4.85709e-05
ExecutionTime = 96.4742 s  ClockTime = 96 s

Time = 20s

diagonalPBiCGStab:  Solving for Ux, Initial residual = 0.178721, Final residual = 0.0171087, No Iterations 4
diagonalPBiCGStab:  Solving for Uy, Initial residual = 0.183602, Final residual = 0.0159111, No Iterations 4
diagonalPBiCGStab:  Solving for Uz, Initial residual = 0.259515, Final residual = 0.0199052, No Iterations 5
diagonalPCG:  Solving for p, Initial residual = 0.583098, Final residual = 0.0581052, No Iterations 647
time step continuity errors : sum local = 0.000279525, global = 1.90041e-06, cumulative = -4.66705e-05
ExecutionTime = 101.959 s  ClockTime = 102 s

Time = 21s

diagonalPBiCGStab:  Solving for Ux, Initial residual = 0.1967, Final residual = 0.0165932, No Iterations 3
diagonalPBiCGStab:  Solving for Uy, Initial residual = 0.13079, Final residual = 0.00983536, No Iterations 5
diagonalPBiCGStab:  Solving for Uz, Initial residual = 0.208643, Final residual = 0.0176634, No Iterations 5
diagonalPCG:  Solving for p, Initial residual = 0.371599, Final residual = 0.0368572, No Iterations 291
time step continuity errors : sum local = 0.000309988, global = 1.6333e-05, cumulative = -3.03375e-05
ExecutionTime = 104.734 s  ClockTime = 104 s

Time = 22s

diagonalPBiCGStab:  Solving for Ux, Initial residual = 0.156314, Final residual = 0.00845153, No Iterations 4
diagonalPBiCGStab:  Solving for Uy, Initial residual = 0.112331, Final residual = 0.0108163, No Iterations 5
diagonalPBiCGStab:  Solving for Uz, Initial residual = 0.168008, Final residual = 0.0139053, No Iterations 5
diagonalPCG:  Solving for p, Initial residual = 0.372231, Final residual = 0.0366068, No Iterations 750
time step continuity errors : sum local = 0.000270779, global = 1.79008e-07, cumulative = -3.01585e-05
ExecutionTime = 110.972 s  ClockTime = 111 s

Time = 23s

diagonalPBiCGStab:  Solving for Ux, Initial residual = 0.205546, Final residual = 0.0158143, No Iterations 4
diagonalPBiCGStab:  Solving for Uy, Initial residual = 0.170862, Final residual = 0.0126649, No Iterations 5
diagonalPBiCGStab:  Solving for Uz, Initial residual = 0.235399, Final residual = 0.0182729, No Iterations 5
diagonalPCG:  Solving for p, Initial residual = 0.376188, Final residual = 0.0370719, No Iterations 413
time step continuity errors : sum local = 0.00025686, global = 2.85827e-05, cumulative = -1.57582e-06
ExecutionTime = 114.689 s  ClockTime = 114 s

Time = 24s

diagonalPBiCGStab:  Solving for Ux, Initial residual = 0.256343, Final residual = 0.0187363, No Iterations 3
diagonalPBiCGStab:  Solving for Uy, Initial residual = 0.117174, Final residual = 0.00485499, No Iterations 6
diagonalPBiCGStab:  Solving for Uz, Initial residual = 0.169629, Final residual = 0.00833142, No Iterations 6
diagonalPCG:  Solving for p, Initial residual = 0.368269, Final residual = 0.0364999, No Iterations 278
time step continuity errors : sum local = 0.000252599, global = -3.98515e-06, cumulative = -5.56097e-06
ExecutionTime = 117.409 s  ClockTime = 117 s

Time = 25s

diagonalPBiCGStab:  Solving for Ux, Initial residual = 0.244508, Final residual = 0.0218276, No Iterations 3
diagonalPBiCGStab:  Solving for Uy, Initial residual = 0.116386, Final residual = 0.00884589, No Iterations 5
diagonalPBiCGStab:  Solving for Uz, Initial residual = 0.148789, Final residual = 0.0121087, No Iterations 5
diagonalPCG:  Solving for p, Initial residual = 0.352323, Final residual = 0.0348861, No Iterations 727
time step continuity errors : sum local = 0.000229989, global = 1.02055e-06, cumulative = -4.54042e-06
ExecutionTime = 123.476 s  ClockTime = 123 s

Time = 26s

diagonalPBiCGStab:  Solving for Ux, Initial residual = 0.104352, Final residual = 0.00609823, No Iterations 5
diagonalPBiCGStab:  Solving for Uy, Initial residual = 0.129566, Final residual = 0.0129364, No Iterations 4
diagonalPBiCGStab:  Solving for Uz, Initial residual = 0.177941, Final residual = 0.0169523, No Iterations 5
diagonalPCG:  Solving for p, Initial residual = 0.581918, Final residual = 0.0578992, No Iterations 424
time step continuity errors : sum local = 0.00019027, global = -2.24572e-05, cumulative = -2.69977e-05
ExecutionTime = 127.286 s  ClockTime = 127 s

Time = 27s

diagonalPBiCGStab:  Solving for Ux, Initial residual = 0.105888, Final residual = 0.00942775, No Iterations 4
diagonalPBiCGStab:  Solving for Uy, Initial residual = 0.0822595, Final residual = 0.0080511, No Iterations 4
diagonalPBiCGStab:  Solving for Uz, Initial residual = 0.13744, Final residual = 0.011881, No Iterations 5
diagonalPCG:  Solving for p, Initial residual = 0.543854, Final residual = 0.0543392, No Iterations 259
time step continuity errors : sum local = 0.000189466, global = -2.8825e-06, cumulative = -2.98802e-05
ExecutionTime = 129.817 s  ClockTime = 129 s

Time = 28s

diagonalPBiCGStab:  Solving for Ux, Initial residual = 0.10266, Final residual = 0.00845537, No Iterations 4
diagonalPBiCGStab:  Solving for Uy, Initial residual = 0.0850279, Final residual = 0.00739205, No Iterations 4
diagonalPBiCGStab:  Solving for Uz, Initial residual = 0.107363, Final residual = 0.00966626, No Iterations 5
diagonalPCG:  Solving for p, Initial residual = 0.535459, Final residual = 0.0530621, No Iterations 235
time step continuity errors : sum local = 0.000169957, global = 1.03002e-05, cumulative = -1.958e-05
ExecutionTime = 132.176 s  ClockTime = 132 s

Time = 29s

diagonalPBiCGStab:  Solving for Ux, Initial residual = 0.0824964, Final residual = 0.00428791, No Iterations 5
diagonalPBiCGStab:  Solving for Uy, Initial residual = 0.0972455, Final residual = 0.00785194, No Iterations 5
diagonalPBiCGStab:  Solving for Uz, Initial residual = 0.109995, Final residual = 0.00900721, No Iterations 5
diagonalPCG:  Solving for p, Initial residual = 0.498971, Final residual = 0.0496029, No Iterations 716
time step continuity errors : sum local = 0.000151302, global = -3.1398e-06, cumulative = -2.27198e-05
ExecutionTime = 138.236 s  ClockTime = 138 s

Time = 30s

diagonalPBiCGStab:  Solving for Ux, Initial residual = 0.148384, Final residual = 0.0124074, No Iterations 3
diagonalPBiCGStab:  Solving for Uy, Initial residual = 0.0822116, Final residual = 0.00630406, No Iterations 5
diagonalPBiCGStab:  Solving for Uz, Initial residual = 0.131241, Final residual = 0.00786798, No Iterations 6
diagonalPCG:  Solving for p, Initial residual = 0.35662, Final residual = 0.0353664, No Iterations 273
time step continuity errors : sum local = 0.000164634, global = 5.59311e-06, cumulative = -1.71267e-05
ExecutionTime = 140.88 s  ClockTime = 141 s

Time = 31s

diagonalPBiCGStab:  Solving for Ux, Initial residual = 0.136413, Final residual = 0.0104884, No Iterations 3
diagonalPBiCGStab:  Solving for Uy, Initial residual = 0.0743111, Final residual = 0.00730516, No Iterations 4
diagonalPBiCGStab:  Solving for Uz, Initial residual = 0.0921619, Final residual = 0.00513345, No Iterations 6
diagonalPCG:  Solving for p, Initial residual = 0.335477, Final residual = 0.0332529, No Iterations 228
time step continuity errors : sum local = 0.000147433, global = -8.29176e-06, cumulative = -2.54184e-05
ExecutionTime = 143.177 s  ClockTime = 143 s

Time = 32s

diagonalPBiCGStab:  Solving for Ux, Initial residual = 0.124943, Final residual = 0.00796225, No Iterations 4
diagonalPBiCGStab:  Solving for Uy, Initial residual = 0.0724983, Final residual = 0.00603675, No Iterations 4
diagonalPBiCGStab:  Solving for Uz, Initial residual = 0.0869528, Final residual = 0.00746012, No Iterations 5
diagonalPCG:  Solving for p, Initial residual = 0.29911, Final residual = 0.0297048, No Iterations 629
time step continuity errors : sum local = 0.000130756, global = -2.87185e-06, cumulative = -2.82903e-05
ExecutionTime = 148.551 s  ClockTime = 148 s

Time = 33s

diagonalPBiCGStab:  Solving for Ux, Initial residual = 0.0687796, Final residual = 0.00687508, No Iterations 4
diagonalPBiCGStab:  Solving for Uy, Initial residual = 0.0588306, Final residual = 0.00574301, No Iterations 5
diagonalPBiCGStab:  Solving for Uz, Initial residual = 0.100167, Final residual = 0.00751309, No Iterations 5
diagonalPCG:  Solving for p, Initial residual = 0.561638, Final residual = 0.0561236, No Iterations 124
time step continuity errors : sum local = 0.000128294, global = -3.95325e-06, cumulative = -3.22435e-05
ExecutionTime = 150.069 s  ClockTime = 150 s

Time = 34s

diagonalPBiCGStab:  Solving for Ux, Initial residual = 0.0531081, Final residual = 0.00418094, No Iterations 4
diagonalPBiCGStab:  Solving for Uy, Initial residual = 0.0529683, Final residual = 0.0048839, No Iterations 4
diagonalPBiCGStab:  Solving for Uz, Initial residual = 0.071949, Final residual = 0.00615234, No Iterations 5
diagonalPCG:  Solving for p, Initial residual = 0.533433, Final residual = 0.0529762, No Iterations 222
time step continuity errors : sum local = 0.000115484, global = 4.99479e-07, cumulative = -3.1744e-05
ExecutionTime = 152.325 s  ClockTime = 152 s

Time = 35s

diagonalPBiCGStab:  Solving for Ux, Initial residual = 0.0481765, Final residual = 0.00369354, No Iterations 4
diagonalPBiCGStab:  Solving for Uy, Initial residual = 0.0542047, Final residual = 0.00469135, No Iterations 4
diagonalPBiCGStab:  Solving for Uz, Initial residual = 0.0728677, Final residual = 0.00607017, No Iterations 5
diagonalPCG:  Solving for p, Initial residual = 0.51079, Final residual = 0.0509046, No Iterations 532
time step continuity errors : sum local = 0.000107866, global = -2.86131e-06, cumulative = -3.46053e-05
ExecutionTime = 156.947 s  ClockTime = 157 s

Time = 36s

diagonalPBiCGStab:  Solving for Ux, Initial residual = 0.0753515, Final residual = 0.00593416, No Iterations 4
diagonalPBiCGStab:  Solving for Uy, Initial residual = 0.0472773, Final residual = 0.00432581, No Iterations 6
diagonalPBiCGStab:  Solving for Uz, Initial residual = 0.0765479, Final residual = 0.00739714, No Iterations 5
diagonalPCG:  Solving for p, Initial residual = 0.343305, Final residual = 0.033956, No Iterations 296
time step continuity errors : sum local = 0.000106968, global = 8.65965e-06, cumulative = -2.59457e-05
ExecutionTime = 159.797 s  ClockTime = 159 s

Time = 37s

diagonalPBiCGStab:  Solving for Ux, Initial residual = 0.0618872, Final residual = 0.00513197, No Iterations 4
diagonalPBiCGStab:  Solving for Uy, Initial residual = 0.0472725, Final residual = 0.00394363, No Iterations 4
diagonalPBiCGStab:  Solving for Uz, Initial residual = 0.06297, Final residual = 0.00484039, No Iterations 5
diagonalPCG:  Solving for p, Initial residual = 0.324251, Final residual = 0.0321747, No Iterations 228
time step continuity errors : sum local = 9.89495e-05, global = 5.16243e-06, cumulative = -2.07833e-05
ExecutionTime = 162.118 s  ClockTime = 162 s

Time = 38s

diagonalPBiCGStab:  Solving for Ux, Initial residual = 0.0603541, Final residual = 0.00509837, No Iterations 4
diagonalPBiCGStab:  Solving for Uy, Initial residual = 0.047244, Final residual = 0.00387922, No Iterations 4
diagonalPBiCGStab:  Solving for Uz, Initial residual = 0.0587507, Final residual = 0.004472, No Iterations 5
diagonalPCG:  Solving for p, Initial residual = 0.301194, Final residual = 0.0300468, No Iterations 134
time step continuity errors : sum local = 9.34408e-05, global = 2.42696e-06, cumulative = -1.83563e-05
ExecutionTime = 163.699 s  ClockTime = 163 s

Time = 39s

diagonalPBiCGStab:  Solving for Ux, Initial residual = 0.0569027, Final residual = 0.00425843, No Iterations 4
diagonalPBiCGStab:  Solving for Uy, Initial residual = 0.0393226, Final residual = 0.00322026, No Iterations 4
diagonalPBiCGStab:  Solving for Uz, Initial residual = 0.0534918, Final residual = 0.00100449, No Iterations 8
diagonalPCG:  Solving for p, Initial residual = 0.283503, Final residual = 0.0279676, No Iterations 123
time step continuity errors : sum local = 8.86522e-05, global = 9.32591e-07, cumulative = -1.74237e-05
ExecutionTime = 165.243 s  ClockTime = 165 s

Time = 40s

diagonalPBiCGStab:  Solving for Ux, Initial residual = 0.0525068, Final residual = 0.00477468, No Iterations 3
diagonalPBiCGStab:  Solving for Uy, Initial residual = 0.0361662, Final residual = 0.00313012, No Iterations 4
diagonalPBiCGStab:  Solving for Uz, Initial residual = 0.049967, Final residual = 0.00391749, No Iterations 5
diagonalPCG:  Solving for p, Initial residual = 0.265368, Final residual = 0.0263804, No Iterations 242
time step continuity errors : sum local = 8.47955e-05, global = -6.23185e-06, cumulative = -2.36556e-05
ExecutionTime = 167.66 s  ClockTime = 167 s

Time = 41s

diagonalPBiCGStab:  Solving for Ux, Initial residual = 0.049277, Final residual = 0.00446, No Iterations 3
diagonalPBiCGStab:  Solving for Uy, Initial residual = 0.0352681, Final residual = 0.00301775, No Iterations 4
diagonalPBiCGStab:  Solving for Uz, Initial residual = 0.0483312, Final residual = 0.00433221, No Iterations 5
diagonalPCG:  Solving for p, Initial residual = 0.254422, Final residual = 0.0253066, No Iterations 149
time step continuity errors : sum local = 8.19097e-05, global = -8.76138e-06, cumulative = -3.2417e-05
ExecutionTime = 169.348 s  ClockTime = 169 s

Time = 42s

diagonalPBiCGStab:  Solving for Ux, Initial residual = 0.0450889, Final residual = 0.00353624, No Iterations 4
diagonalPBiCGStab:  Solving for Uy, Initial residual = 0.0328692, Final residual = 0.002932, No Iterations 4
diagonalPBiCGStab:  Solving for Uz, Initial residual = 0.046991, Final residual = 0.00388296, No Iterations 5
diagonalPCG:  Solving for p, Initial residual = 0.243484, Final residual = 0.0240914, No Iterations 539
time step continuity errors : sum local = 7.80259e-05, global = -5.76261e-08, cumulative = -3.24746e-05
ExecutionTime = 174.021 s  ClockTime = 174 s

Time = 43s

diagonalPBiCGStab:  Solving for Ux, Initial residual = 0.0300926, Final residual = 0.00241519, No Iterations 4
diagonalPBiCGStab:  Solving for Uy, Initial residual = 0.0323028, Final residual = 0.00271393, No Iterations 5
diagonalPBiCGStab:  Solving for Uz, Initial residual = 0.0552559, Final residual = 0.00261999, No Iterations 6
diagonalPCG:  Solving for p, Initial residual = 0.383673, Final residual = 0.0383019, No Iterations 102
time step continuity errors : sum local = 8.41657e-05, global = -2.39045e-06, cumulative = -3.4865e-05
ExecutionTime = 175.395 s  ClockTime = 175 s

Time = 44s

diagonalPBiCGStab:  Solving for Ux, Initial residual = 0.0282765, Final residual = 0.00211094, No Iterations 4
diagonalPBiCGStab:  Solving for Uy, Initial residual = 0.0283331, Final residual = 0.00243811, No Iterations 5
diagonalPBiCGStab:  Solving for Uz, Initial residual = 0.0420105, Final residual = 0.00327654, No Iterations 5
diagonalPCG:  Solving for p, Initial residual = 0.367111, Final residual = 0.0362583, No Iterations 562
time step continuity errors : sum local = 7.84227e-05, global = -1.1959e-06, cumulative = -3.60609e-05
ExecutionTime = 180.234 s  ClockTime = 180 s

Time = 45s

diagonalPBiCGStab:  Solving for Ux, Initial residual = 0.0275706, Final residual = 0.00271776, No Iterations 4
diagonalPBiCGStab:  Solving for Uy, Initial residual = 0.0276041, Final residual = 0.00267562, No Iterations 4
diagonalPBiCGStab:  Solving for Uz, Initial residual = 0.0439805, Final residual = 0.0032631, No Iterations 5
diagonalPCG:  Solving for p, Initial residual = 0.281063, Final residual = 0.0280888, No Iterations 143
time step continuity errors : sum local = 6.83248e-05, global = 7.71546e-06, cumulative = -2.83455e-05
ExecutionTime = 181.888 s  ClockTime = 182 s

Time = 46s

diagonalPBiCGStab:  Solving for Ux, Initial residual = 0.0249257, Final residual = 0.00154528, No Iterations 5
diagonalPBiCGStab:  Solving for Uy, Initial residual = 0.024933, Final residual = 0.00229753, No Iterations 4
diagonalPBiCGStab:  Solving for Uz, Initial residual = 0.036532, Final residual = 0.00270937, No Iterations 5
diagonalPCG:  Solving for p, Initial residual = 0.266507, Final residual = 0.0266136, No Iterations 589
time step continuity errors : sum local = 6.48676e-05, global = 1.49469e-06, cumulative = -2.68508e-05
ExecutionTime = 186.942 s  ClockTime = 187 s

Time = 47s

diagonalPBiCGStab:  Solving for Ux, Initial residual = 0.0445829, Final residual = 0.00351749, No Iterations 3
diagonalPBiCGStab:  Solving for Uy, Initial residual = 0.0274665, Final residual = 0.00257225, No Iterations 4
diagonalPBiCGStab:  Solving for Uz, Initial residual = 0.0403471, Final residual = 0.00401519, No Iterations 4
diagonalPCG:  Solving for p, Initial residual = 0.204303, Final residual = 0.0203022, No Iterations 150
time step continuity errors : sum local = 7.06264e-05, global = -3.01421e-06, cumulative = -2.9865e-05
ExecutionTime = 188.636 s  ClockTime = 188 s

Time = 48s

diagonalPBiCGStab:  Solving for Ux, Initial residual = 0.0409542, Final residual = 0.00243465, No Iterations 4
diagonalPBiCGStab:  Solving for Uy, Initial residual = 0.0277636, Final residual = 0.00234495, No Iterations 4
diagonalPBiCGStab:  Solving for Uz, Initial residual = 0.0360751, Final residual = 0.00302486, No Iterations 5
diagonalPCG:  Solving for p, Initial residual = 0.195226, Final residual = 0.0193826, No Iterations 574
time step continuity errors : sum local = 6.83883e-05, global = -2.37968e-06, cumulative = -3.22447e-05
ExecutionTime = 193.568 s  ClockTime = 193 s

Time = 49s

diagonalPBiCGStab:  Solving for Ux, Initial residual = 0.0189906, Final residual = 0.00175961, No Iterations 4
diagonalPBiCGStab:  Solving for Uy, Initial residual = 0.0272624, Final residual = 0.0026834, No Iterations 4
diagonalPBiCGStab:  Solving for Uz, Initial residual = 0.0451828, Final residual = 0.00409759, No Iterations 5
diagonalPCG:  Solving for p, Initial residual = 0.360223, Final residual = 0.0352453, No Iterations 99
time step continuity errors : sum local = 6.51756e-05, global = -7.82389e-06, cumulative = -4.00686e-05
ExecutionTime = 194.896 s  ClockTime = 195 s

Time = 50s

diagonalPBiCGStab:  Solving for Ux, Initial residual = 0.0178839, Final residual = 0.00152065, No Iterations 4
diagonalPBiCGStab:  Solving for Uy, Initial residual = 0.0229578, Final residual = 0.00216258, No Iterations 4
diagonalPBiCGStab:  Solving for Uz, Initial residual = 0.0344933, Final residual = 0.00321295, No Iterations 4
diagonalPCG:  Solving for p, Initial residual = 0.353125, Final residual = 0.0348308, No Iterations 240
time step continuity errors : sum local = 6.40537e-05, global = -4.59142e-06, cumulative = -4.466e-05
ExecutionTime = 197.277 s  ClockTime = 197 s

Time = 51s

diagonalPBiCGStab:  Solving for Ux, Initial residual = 0.0156793, Final residual = 0.00153622, No Iterations 4
diagonalPBiCGStab:  Solving for Uy, Initial residual = 0.0201932, Final residual = 0.00188697, No Iterations 5
diagonalPBiCGStab:  Solving for Uz, Initial residual = 0.0323696, Final residual = 0.00248696, No Iterations 5
diagonalPCG:  Solving for p, Initial residual = 0.340688, Final residual = 0.0340263, No Iterations 105
time step continuity errors : sum local = 6.06349e-05, global = -1.96625e-06, cumulative = -4.66262e-05
ExecutionTime = 198.657 s  ClockTime = 198 s

Time = 52s

diagonalPBiCGStab:  Solving for Ux, Initial residual = 0.0151734, Final residual = 0.00129463, No Iterations 4
diagonalPBiCGStab:  Solving for Uy, Initial residual = 0.0195166, Final residual = 0.00167469, No Iterations 5
diagonalPBiCGStab:  Solving for Uz, Initial residual = 0.0292829, Final residual = 0.00220142, No Iterations 5
diagonalPCG:  Solving for p, Initial residual = 0.328287, Final residual = 0.0327397, No Iterations 85
time step continuity errors : sum local = 5.79031e-05, global = 1.10407e-06, cumulative = -4.55222e-05
ExecutionTime = 199.888 s  ClockTime = 200 s

Time = 53s

diagonalPBiCGStab:  Solving for Ux, Initial residual = 0.0140315, Final residual = 0.00131041, No Iterations 4
diagonalPBiCGStab:  Solving for Uy, Initial residual = 0.020206, Final residual = 0.00158541, No Iterations 5
diagonalPBiCGStab:  Solving for Uz, Initial residual = 0.0285677, Final residual = 0.00267743, No Iterations 5
diagonalPCG:  Solving for p, Initial residual = 0.321403, Final residual = 0.0320523, No Iterations 102
time step continuity errors : sum local = 5.63939e-05, global = 3.23337e-06, cumulative = -4.22888e-05
ExecutionTime = 201.25 s  ClockTime = 201 s

Time = 54s

diagonalPBiCGStab:  Solving for Ux, Initial residual = 0.0129598, Final residual = 0.00120073, No Iterations 4
diagonalPBiCGStab:  Solving for Uy, Initial residual = 0.0213726, Final residual = 0.00193366, No Iterations 4
diagonalPBiCGStab:  Solving for Uz, Initial residual = 0.0285554, Final residual = 0.00264324, No Iterations 5
diagonalPCG:  Solving for p, Initial residual = 0.313652, Final residual = 0.0313326, No Iterations 114
time step continuity errors : sum local = 5.47819e-05, global = 5.19019e-06, cumulative = -3.70986e-05
ExecutionTime = 202.692 s  ClockTime = 202 s

Time = 55s

diagonalPBiCGStab:  Solving for Ux, Initial residual = 0.0132251, Final residual = 0.00122367, No Iterations 4
diagonalPBiCGStab:  Solving for Uy, Initial residual = 0.0220468, Final residual = 0.00186364, No Iterations 4
diagonalPBiCGStab:  Solving for Uz, Initial residual = 0.0282854, Final residual = 0.00262677, No Iterations 4
diagonalPCG:  Solving for p, Initial residual = 0.307372, Final residual = 0.0303592, No Iterations 479
time step continuity errors : sum local = 5.28725e-05, global = -1.46329e-06, cumulative = -3.85619e-05
ExecutionTime = 206.887 s  ClockTime = 207 s

Time = 56s

diagonalPBiCGStab:  Solving for Ux, Initial residual = 0.0177206, Final residual = 0.00165387, No Iterations 4
diagonalPBiCGStab:  Solving for Uy, Initial residual = 0.0221262, Final residual = 0.00181245, No Iterations 5
diagonalPBiCGStab:  Solving for Uz, Initial residual = 0.0298604, Final residual = 0.00277678, No Iterations 4
diagonalPCG:  Solving for p, Initial residual = 0.218403, Final residual = 0.021669, No Iterations 166
time step continuity errors : sum local = 5.56332e-05, global = -2.09282e-06, cumulative = -4.06547e-05
ExecutionTime = 208.713 s  ClockTime = 208 s

Time = 57s

diagonalPBiCGStab:  Solving for Ux, Initial residual = 0.01651, Final residual = 0.0014664, No Iterations 4
diagonalPBiCGStab:  Solving for Uy, Initial residual = 0.0191508, Final residual = 0.00151082, No Iterations 5
diagonalPBiCGStab:  Solving for Uz, Initial residual = 0.0263058, Final residual = 0.00258299, No Iterations 4
diagonalPCG:  Solving for p, Initial residual = 0.209723, Final residual = 0.0209668, No Iterations 277
time step continuity errors : sum local = 5.40118e-05, global = -3.52719e-06, cumulative = -4.41819e-05
ExecutionTime = 211.39 s  ClockTime = 211 s

Time = 58s

diagonalPBiCGStab:  Solving for Ux, Initial residual = 0.0160078, Final residual = 0.001555, No Iterations 4
diagonalPBiCGStab:  Solving for Uy, Initial residual = 0.0201439, Final residual = 0.00197123, No Iterations 4
diagonalPBiCGStab:  Solving for Uz, Initial residual = 0.026238, Final residual = 0.00225682, No Iterations 5
diagonalPCG:  Solving for p, Initial residual = 0.223019, Final residual = 0.0216404, No Iterations 549
time step continuity errors : sum local = 5.26335e-05, global = 3.95211e-07, cumulative = -4.37867e-05
ExecutionTime = 216.155 s  ClockTime = 216 s

Time = 59s

diagonalPBiCGStab:  Solving for Ux, Initial residual = 0.0205641, Final residual = 0.00168938, No Iterations 4
diagonalPBiCGStab:  Solving for Uy, Initial residual = 0.0220037, Final residual = 0.00192693, No Iterations 5
diagonalPBiCGStab:  Solving for Uz, Initial residual = 0.0301527, Final residual = 0.00288879, No Iterations 4
diagonalPCG:  Solving for p, Initial residual = 0.265203, Final residual = 0.0264319, No Iterations 199
time step continuity errors : sum local = 5.7499e-05, global = -7.85422e-07, cumulative = -4.45721e-05
ExecutionTime = 218.243 s  ClockTime = 218 s

Time = 60s

diagonalPBiCGStab:  Solving for Ux, Initial residual = 0.0197617, Final residual = 0.00149312, No Iterations 4
diagonalPBiCGStab:  Solving for Uy, Initial residual = 0.019151, Final residual = 0.00190627, No Iterations 4
diagonalPBiCGStab:  Solving for Uz, Initial residual = 0.025637, Final residual = 0.00233499, No Iterations 4
diagonalPCG:  Solving for p, Initial residual = 0.256191, Final residual = 0.0254726, No Iterations 226
time step continuity errors : sum local = 5.45182e-05, global = 6.04519e-06, cumulative = -3.85269e-05
ExecutionTime = 220.514 s  ClockTime = 220 s

Time = 61s

diagonalPBiCGStab:  Solving for Ux, Initial residual = 0.0184365, Final residual = 0.0015577, No Iterations 4
diagonalPBiCGStab:  Solving for Uy, Initial residual = 0.018815, Final residual = 0.00155659, No Iterations 5
diagonalPBiCGStab:  Solving for Uz, Initial residual = 0.0254327, Final residual = 0.0019513, No Iterations 5
diagonalPCG:  Solving for p, Initial residual = 0.258148, Final residual = 0.0253206, No Iterations 549
time step continuity errors : sum local = 5.03503e-05, global = -1.30812e-06, cumulative = -3.98351e-05
ExecutionTime = 225.276 s  ClockTime = 225 s

Time = 62s

diagonalPBiCGStab:  Solving for Ux, Initial residual = 0.0193555, Final residual = 0.00164935, No Iterations 4
diagonalPBiCGStab:  Solving for Uy, Initial residual = 0.0227436, Final residual = 0.00210099, No Iterations 5
diagonalPBiCGStab:  Solving for Uz, Initial residual = 0.0298772, Final residual = 0.0020091, No Iterations 5
diagonalPCG:  Solving for p, Initial residual = 0.205031, Final residual = 0.0204113, No Iterations 223
time step continuity errors : sum local = 5.47924e-05, global = 3.2524e-06, cumulative = -3.65827e-05
ExecutionTime = 227.546 s  ClockTime = 227 s

Time = 63s

diagonalPBiCGStab:  Solving for Ux, Initial residual = 0.0170084, Final residual = 0.00147105, No Iterations 4
diagonalPBiCGStab:  Solving for Uy, Initial residual = 0.0208224, Final residual = 0.00193733, No Iterations 4
diagonalPBiCGStab:  Solving for Uz, Initial residual = 0.0241907, Final residual = 0.00188738, No Iterations 7
diagonalPCG:  Solving for p, Initial residual = 0.200499, Final residual = 0.0200079, No Iterations 189
time step continuity errors : sum local = 5.25258e-05, global = -4.19266e-06, cumulative = -4.07753e-05
ExecutionTime = 229.565 s  ClockTime = 229 s

Time = 64s

diagonalPBiCGStab:  Solving for Ux, Initial residual = 0.0166924, Final residual = 0.00143961, No Iterations 4
diagonalPBiCGStab:  Solving for Uy, Initial residual = 0.0190913, Final residual = 0.00170401, No Iterations 4
diagonalPBiCGStab:  Solving for Uz, Initial residual = 0.0231792, Final residual = 0.0017988, No Iterations 5
diagonalPCG:  Solving for p, Initial residual = 0.199202, Final residual = 0.0197561, No Iterations 574
time step continuity errors : sum local = 5.10838e-05, global = 7.68901e-07, cumulative = -4.00064e-05
ExecutionTime = 234.48 s  ClockTime = 234 s

Time = 65s

diagonalPBiCGStab:  Solving for Ux, Initial residual = 0.016624, Final residual = 0.00139704, No Iterations 4
diagonalPBiCGStab:  Solving for Uy, Initial residual = 0.0184335, Final residual = 0.00179334, No Iterations 4
diagonalPBiCGStab:  Solving for Uz, Initial residual = 0.0250383, Final residual = 0.00211088, No Iterations 5
diagonalPCG:  Solving for p, Initial residual = 0.304309, Final residual = 0.0300635, No Iterations 214
time step continuity errors : sum local = 5.12763e-05, global = -1.99372e-06, cumulative = -4.20001e-05
ExecutionTime = 236.68 s  ClockTime = 236 s

Time = 66s

diagonalPBiCGStab:  Solving for Ux, Initial residual = 0.0121234, Final residual = 0.0010435, No Iterations 4
diagonalPBiCGStab:  Solving for Uy, Initial residual = 0.0181948, Final residual = 0.00154307, No Iterations 4
diagonalPBiCGStab:  Solving for Uz, Initial residual = 0.0231041, Final residual = 0.00165018, No Iterations 5
diagonalPCG:  Solving for p, Initial residual = 0.275217, Final residual = 0.0270131, No Iterations 208
time step continuity errors : sum local = 4.68671e-05, global = -7.34125e-07, cumulative = -4.27343e-05
ExecutionTime = 238.829 s  ClockTime = 239 s

Time = 67s

diagonalPBiCGStab:  Solving for Ux, Initial residual = 0.0102039, Final residual = 0.000839504, No Iterations 4
diagonalPBiCGStab:  Solving for Uy, Initial residual = 0.0200726, Final residual = 0.00162764, No Iterations 4
diagonalPBiCGStab:  Solving for Uz, Initial residual = 0.0227995, Final residual = 0.00168927, No Iterations 5
diagonalPCG:  Solving for p, Initial residual = 0.258785, Final residual = 0.0258169, No Iterations 156
time step continuity errors : sum local = 4.54467e-05, global = 1.85994e-06, cumulative = -4.08743e-05
ExecutionTime = 240.588 s  ClockTime = 240 s

Time = 68s

diagonalPBiCGStab:  Solving for Ux, Initial residual = 0.0104344, Final residual = 0.000934846, No Iterations 5
diagonalPBiCGStab:  Solving for Uy, Initial residual = 0.0188983, Final residual = 0.00177436, No Iterations 4
diagonalPBiCGStab:  Solving for Uz, Initial residual = 0.0217401, Final residual = 0.00211389, No Iterations 6
diagonalPCG:  Solving for p, Initial residual = 0.251624, Final residual = 0.0250348, No Iterations 675
time step continuity errors : sum local = 4.39412e-05, global = -2.07397e-07, cumulative = -4.10817e-05
ExecutionTime = 246.308 s  ClockTime = 246 s

Time = 69s

diagonalPBiCGStab:  Solving for Ux, Initial residual = 0.01283, Final residual = 0.00123616, No Iterations 4
diagonalPBiCGStab:  Solving for Uy, Initial residual = 0.0184922, Final residual = 0.00160623, No Iterations 4
diagonalPBiCGStab:  Solving for Uz, Initial residual = 0.02282, Final residual = 0.00194693, No Iterations 4
diagonalPCG:  Solving for p, Initial residual = 0.189019, Final residual = 0.0187511, No Iterations 195
time step continuity errors : sum local = 4.51811e-05, global = 2.41812e-06, cumulative = -3.86636e-05
ExecutionTime = 248.362 s  ClockTime = 248 s

Time = 70s

diagonalPBiCGStab:  Solving for Ux, Initial residual = 0.0135206, Final residual = 0.00108258, No Iterations 4
diagonalPBiCGStab:  Solving for Uy, Initial residual = 0.0179677, Final residual = 0.00166698, No Iterations 4
diagonalPBiCGStab:  Solving for Uz, Initial residual = 0.0205866, Final residual = 0.0019335, No Iterations 4
diagonalPCG:  Solving for p, Initial residual = 0.187161, Final residual = 0.0184595, No Iterations 80
time step continuity errors : sum local = 4.36598e-05, global = -2.07869e-06, cumulative = -4.07423e-05
ExecutionTime = 249.521 s  ClockTime = 249 s

Time = 71s

diagonalPBiCGStab:  Solving for Ux, Initial residual = 0.0134554, Final residual = 0.00104265, No Iterations 4
diagonalPBiCGStab:  Solving for Uy, Initial residual = 0.0177615, Final residual = 0.00113778, No Iterations 5
diagonalPBiCGStab:  Solving for Uz, Initial residual = 0.0206286, Final residual = 0.0015741, No Iterations 4
diagonalPCG:  Solving for p, Initial residual = 0.181216, Final residual = 0.0181111, No Iterations 542
time step continuity errors : sum local = 4.32507e-05, global = 5.63345e-08, cumulative = -4.0686e-05
ExecutionTime = 254.231 s  ClockTime = 254 s

Time = 72s

diagonalPBiCGStab:  Solving for Ux, Initial residual = 0.0103027, Final residual = 0.0008146, No Iterations 4
diagonalPBiCGStab:  Solving for Uy, Initial residual = 0.0182942, Final residual = 0.00039569, No Iterations 7
diagonalPBiCGStab:  Solving for Uz, Initial residual = 0.0229558, Final residual = 0.00196626, No Iterations 4
diagonalPCG:  Solving for p, Initial residual = 0.237797, Final residual = 0.0236525, No Iterations 205
time step continuity errors : sum local = 4.18935e-05, global = -2.37693e-06, cumulative = -4.30629e-05
ExecutionTime = 256.382 s  ClockTime = 256 s

Time = 73s

diagonalPBiCGStab:  Solving for Ux, Initial residual = 0.0102265, Final residual = 0.000998893, No Iterations 4
diagonalPBiCGStab:  Solving for Uy, Initial residual = 0.0175851, Final residual = 0.00161936, No Iterations 4
diagonalPBiCGStab:  Solving for Uz, Initial residual = 0.0218048, Final residual = 0.00210345, No Iterations 4
diagonalPCG:  Solving for p, Initial residual = 0.23393, Final residual = 0.0229273, No Iterations 156
time step continuity errors : sum local = 4.08085e-05, global = -2.89816e-07, cumulative = -4.33527e-05
ExecutionTime = 258.117 s  ClockTime = 258 s

Time = 74s

diagonalPBiCGStab:  Solving for Ux, Initial residual = 0.00874105, Final residual = 0.000680896, No Iterations 4
diagonalPBiCGStab:  Solving for Uy, Initial residual = 0.0165496, Final residual = 0.00144389, No Iterations 4
diagonalPBiCGStab:  Solving for Uz, Initial residual = 0.0213436, Final residual = 0.00197498, No Iterations 4
diagonalPCG:  Solving for p, Initial residual = 0.22453, Final residual = 0.0219295, No Iterations 155
time step continuity errors : sum local = 3.83876e-05, global = 5.49686e-07, cumulative = -4.2803e-05
ExecutionTime = 259.841 s  ClockTime = 260 s

Time = 75s

diagonalPBiCGStab:  Solving for Ux, Initial residual = 0.00899939, Final residual = 0.00069783, No Iterations 4
diagonalPBiCGStab:  Solving for Uy, Initial residual = 0.0166687, Final residual = 0.00166637, No Iterations 4
diagonalPBiCGStab:  Solving for Uz, Initial residual = 0.0210172, Final residual = 0.0020451, No Iterations 4
diagonalPCG:  Solving for p, Initial residual = 0.222641, Final residual = 0.0222166, No Iterations 40
time step continuity errors : sum local = 3.8274e-05, global = 1.15229e-06, cumulative = -4.16507e-05
ExecutionTime = 260.7 s  ClockTime = 260 s

Time = 76s

diagonalPBiCGStab:  Solving for Ux, Initial residual = 0.00900034, Final residual = 0.000880371, No Iterations 4
diagonalPBiCGStab:  Solving for Uy, Initial residual = 0.0167674, Final residual = 0.00149537, No Iterations 5
diagonalPBiCGStab:  Solving for Uz, Initial residual = 0.0203782, Final residual = 0.00166369, No Iterations 5
diagonalPCG:  Solving for p, Initial residual = 0.217435, Final residual = 0.0216177, No Iterations 140
time step continuity errors : sum local = 3.71127e-05, global = 2.32122e-06, cumulative = -3.93295e-05
ExecutionTime = 262.346 s  ClockTime = 262 s

Time = 77s

diagonalPBiCGStab:  Solving for Ux, Initial residual = 0.00901635, Final residual = 0.000874195, No Iterations 4
diagonalPBiCGStab:  Solving for Uy, Initial residual = 0.016236, Final residual = 0.00148678, No Iterations 4
diagonalPBiCGStab:  Solving for Uz, Initial residual = 0.0205816, Final residual = 0.00189895, No Iterations 4
diagonalPCG:  Solving for p, Initial residual = 0.212312, Final residual = 0.020791, No Iterations 534
time step continuity errors : sum local = 3.59299e-05, global = 1.23539e-06, cumulative = -3.80941e-05
ExecutionTime = 266.963 s  ClockTime = 267 s

Time = 78s

diagonalPBiCGStab:  Solving for Ux, Initial residual = 0.0133755, Final residual = 0.00106725, No Iterations 4
diagonalPBiCGStab:  Solving for Uy, Initial residual = 0.0180944, Final residual = 0.00144644, No Iterations 4
diagonalPBiCGStab:  Solving for Uz, Initial residual = 0.0227201, Final residual = 0.00182338, No Iterations 4
diagonalPCG:  Solving for p, Initial residual = 0.170032, Final residual = 0.0169954, No Iterations 40
time step continuity errors : sum local = 4.03062e-05, global = 8.24825e-07, cumulative = -3.72693e-05
ExecutionTime = 267.825 s  ClockTime = 268 s

Time = 79s

diagonalPBiCGStab:  Solving for Ux, Initial residual = 0.0131265, Final residual = 0.00110158, No Iterations 3
diagonalPBiCGStab:  Solving for Uy, Initial residual = 0.0173553, Final residual = 0.0014663, No Iterations 4
diagonalPBiCGStab:  Solving for Uz, Initial residual = 0.021008, Final residual = 0.00184278, No Iterations 4
diagonalPCG:  Solving for p, Initial residual = 0.162112, Final residual = 0.0161904, No Iterations 78
time step continuity errors : sum local = 3.89121e-05, global = -1.73364e-06, cumulative = -3.90029e-05
ExecutionTime = 268.963 s  ClockTime = 269 s

Time = 80s

diagonalPBiCGStab:  Solving for Ux, Initial residual = 0.0127181, Final residual = 0.0010583, No Iterations 3
diagonalPBiCGStab:  Solving for Uy, Initial residual = 0.0181135, Final residual = 0.000829985, No Iterations 5
diagonalPBiCGStab:  Solving for Uz, Initial residual = 0.0216625, Final residual = 0.00179232, No Iterations 4
diagonalPCG:  Solving for p, Initial residual = 0.156002, Final residual = 0.0151686, No Iterations 542
time step continuity errors : sum local = 3.66791e-05, global = -3.69562e-07, cumulative = -3.93725e-05
ExecutionTime = 273.632 s  ClockTime = 273 s

Time = 81s

diagonalPBiCGStab:  Solving for Ux, Initial residual = 0.00804451, Final residual = 0.000685662, No Iterations 4
diagonalPBiCGStab:  Solving for Uy, Initial residual = 0.018159, Final residual = 0.000927147, No Iterations 5
diagonalPBiCGStab:  Solving for Uz, Initial residual = 0.0226524, Final residual = 0.00191068, No Iterations 4
diagonalPCG:  Solving for p, Initial residual = 0.206027, Final residual = 0.0203156, No Iterations 56
time step continuity errors : sum local = 3.60585e-05, global = -1.15835e-06, cumulative = -4.05308e-05
ExecutionTime = 274.634 s  ClockTime = 274 s

Time = 82s

diagonalPBiCGStab:  Solving for Ux, Initial residual = 0.00799395, Final residual = 0.000608377, No Iterations 4
diagonalPBiCGStab:  Solving for Uy, Initial residual = 0.0164751, Final residual = 0.000529905, No Iterations 6
diagonalPBiCGStab:  Solving for Uz, Initial residual = 0.019825, Final residual = 0.00173788, No Iterations 4
diagonalPCG:  Solving for p, Initial residual = 0.202273, Final residual = 0.0201846, No Iterations 76
time step continuity errors : sum local = 3.59115e-05, global = 1.01548e-06, cumulative = -3.95154e-05
ExecutionTime = 275.805 s  ClockTime = 276 s

Time = 83s

diagonalPBiCGStab:  Solving for Ux, Initial residual = 0.00820259, Final residual = 0.00071027, No Iterations 4
diagonalPBiCGStab:  Solving for Uy, Initial residual = 0.0148449, Final residual = 0.00111783, No Iterations 4
diagonalPBiCGStab:  Solving for Uz, Initial residual = 0.0193773, Final residual = 0.00170194, No Iterations 4
diagonalPCG:  Solving for p, Initial residual = 0.198423, Final residual = 0.0196898, No Iterations 425
time step continuity errors : sum local = 3.49654e-05, global = 1.10225e-06, cumulative = -3.84131e-05
ExecutionTime = 279.599 s  ClockTime = 279 s

Time = 84s

diagonalPBiCGStab:  Solving for Ux, Initial residual = 0.0120601, Final residual = 0.00084413, No Iterations 4
diagonalPBiCGStab:  Solving for Uy, Initial residual = 0.015991, Final residual = 0.00154347, No Iterations 4
diagonalPBiCGStab:  Solving for Uz, Initial residual = 0.0209112, Final residual = 0.00169942, No Iterations 4
diagonalPCG:  Solving for p, Initial residual = 0.157162, Final residual = 0.0157136, No Iterations 58
time step continuity errors : sum local = 3.69401e-05, global = 2.01336e-06, cumulative = -3.63997e-05
ExecutionTime = 280.595 s  ClockTime = 280 s

Time = 85s

diagonalPBiCGStab:  Solving for Ux, Initial residual = 0.0118845, Final residual = 0.000730577, No Iterations 4
diagonalPBiCGStab:  Solving for Uy, Initial residual = 0.0160457, Final residual = 0.00155116, No Iterations 4
diagonalPBiCGStab:  Solving for Uz, Initial residual = 0.0202771, Final residual = 0.00145841, No Iterations 4
diagonalPCG:  Solving for p, Initial residual = 0.15318, Final residual = 0.0150249, No Iterations 73
time step continuity errors : sum local = 3.54101e-05, global = 1.04062e-06, cumulative = -3.53591e-05
ExecutionTime = 281.705 s  ClockTime = 281 s

Time = 86s

diagonalPBiCGStab:  Solving for Ux, Initial residual = 0.0116474, Final residual = 0.000713421, No Iterations 4
diagonalPBiCGStab:  Solving for Uy, Initial residual = 0.017519, Final residual = 0.00161911, No Iterations 3
diagonalPBiCGStab:  Solving for Uz, Initial residual = 0.0203294, Final residual = 0.00136586, No Iterations 5
diagonalPCG:  Solving for p, Initial residual = 0.149594, Final residual = 0.0149062, No Iterations 561
time step continuity errors : sum local = 3.53361e-05, global = -1.01224e-06, cumulative = -3.63714e-05
ExecutionTime = 286.523 s  ClockTime = 286 s

Time = 87s

diagonalPBiCGStab:  Solving for Ux, Initial residual = 0.00760415, Final residual = 0.000721012, No Iterations 4
diagonalPBiCGStab:  Solving for Uy, Initial residual = 0.0175126, Final residual = 0.00162571, No Iterations 4
diagonalPBiCGStab:  Solving for Uz, Initial residual = 0.020184, Final residual = 0.00155294, No Iterations 4
diagonalPCG:  Solving for p, Initial residual = 0.173349, Final residual = 0.0169507, No Iterations 174
time step continuity errors : sum local = 3.39009e-05, global = -2.5378e-06, cumulative = -3.89092e-05
ExecutionTime = 288.398 s  ClockTime = 288 s

Time = 88s

diagonalPBiCGStab:  Solving for Ux, Initial residual = 0.00687802, Final residual = 0.00067294, No Iterations 4
diagonalPBiCGStab:  Solving for Uy, Initial residual = 0.015395, Final residual = 0.00139004, No Iterations 4
diagonalPBiCGStab:  Solving for Uz, Initial residual = 0.0183334, Final residual = 0.00135143, No Iterations 4
diagonalPCG:  Solving for p, Initial residual = 0.170628, Final residual = 0.0169835, No Iterations 180
time step continuity errors : sum local = 3.38307e-05, global = -2.73527e-06, cumulative = -4.16444e-05
ExecutionTime = 290.309 s  ClockTime = 290 s

Time = 89s

diagonalPBiCGStab:  Solving for Ux, Initial residual = 0.00713287, Final residual = 0.000655741, No Iterations 4
diagonalPBiCGStab:  Solving for Uy, Initial residual = 0.0147941, Final residual = 0.00129574, No Iterations 4
diagonalPBiCGStab:  Solving for Uz, Initial residual = 0.0185319, Final residual = 0.0018411, No Iterations 4
diagonalPCG:  Solving for p, Initial residual = 0.168718, Final residual = 0.0168435, No Iterations 203
time step continuity errors : sum local = 3.31704e-05, global = -2.08534e-06, cumulative = -4.37298e-05
ExecutionTime = 292.431 s  ClockTime = 292 s

Time = 90s

diagonalPBiCGStab:  Solving for Ux, Initial residual = 0.00844056, Final residual = 0.000655516, No Iterations 4
diagonalPBiCGStab:  Solving for Uy, Initial residual = 0.0148074, Final residual = 0.00125507, No Iterations 4
diagonalPBiCGStab:  Solving for Uz, Initial residual = 0.0190255, Final residual = 0.00164685, No Iterations 4
diagonalPCG:  Solving for p, Initial residual = 0.175568, Final residual = 0.0173886, No Iterations 132
time step continuity errors : sum local = 3.30271e-05, global = -2.85417e-06, cumulative = -4.65839e-05
ExecutionTime = 293.981 s  ClockTime = 294 s

Time = 91s

diagonalPBiCGStab:  Solving for Ux, Initial residual = 0.00739716, Final residual = 0.000592742, No Iterations 4
diagonalPBiCGStab:  Solving for Uy, Initial residual = 0.0150267, Final residual = 0.00115885, No Iterations 4
diagonalPBiCGStab:  Solving for Uz, Initial residual = 0.0187121, Final residual = 0.0016496, No Iterations 4
diagonalPCG:  Solving for p, Initial residual = 0.171045, Final residual = 0.0170001, No Iterations 562
time step continuity errors : sum local = 3.19248e-05, global = -2.03831e-07, cumulative = -4.67878e-05
ExecutionTime = 298.81 s  ClockTime = 299 s

Time = 92s

diagonalPBiCGStab:  Solving for Ux, Initial residual = 0.0113449, Final residual = 0.00071108, No Iterations 4
diagonalPBiCGStab:  Solving for Uy, Initial residual = 0.0157722, Final residual = 0.00146674, No Iterations 4
diagonalPBiCGStab:  Solving for Uz, Initial residual = 0.0191982, Final residual = 0.00183652, No Iterations 4
diagonalPCG:  Solving for p, Initial residual = 0.19485, Final residual = 0.019415, No Iterations 166
time step continuity errors : sum local = 3.484e-05, global = 3.19001e-07, cumulative = -4.64688e-05
ExecutionTime = 300.62 s  ClockTime = 300 s

Time = 93s

diagonalPBiCGStab:  Solving for Ux, Initial residual = 0.0106559, Final residual = 0.000875815, No Iterations 3
diagonalPBiCGStab:  Solving for Uy, Initial residual = 0.0138625, Final residual = 0.00115361, No Iterations 4
diagonalPBiCGStab:  Solving for Uz, Initial residual = 0.0180301, Final residual = 0.00174624, No Iterations 4
diagonalPCG:  Solving for p, Initial residual = 0.189846, Final residual = 0.0189647, No Iterations 56
time step continuity errors : sum local = 3.3235e-05, global = 3.03898e-06, cumulative = -4.34298e-05
ExecutionTime = 301.589 s  ClockTime = 301 s

Time = 94s

diagonalPBiCGStab:  Solving for Ux, Initial residual = 0.0103336, Final residual = 0.00081334, No Iterations 3
diagonalPBiCGStab:  Solving for Uy, Initial residual = 0.0141784, Final residual = 0.00108456, No Iterations 4
diagonalPBiCGStab:  Solving for Uz, Initial residual = 0.018211, Final residual = 0.00143457, No Iterations 4
diagonalPCG:  Solving for p, Initial residual = 0.183665, Final residual = 0.0182146, No Iterations 511
time step continuity errors : sum local = 3.16774e-05, global = -4.56788e-07, cumulative = -4.38866e-05
ExecutionTime = 306.026 s  ClockTime = 306 s

Time = 95s

diagonalPBiCGStab:  Solving for Ux, Initial residual = 0.00759716, Final residual = 0.000721968, No Iterations 4
diagonalPBiCGStab:  Solving for Uy, Initial residual = 0.0161843, Final residual = 0.00128285, No Iterations 4
diagonalPBiCGStab:  Solving for Uz, Initial residual = 0.0199016, Final residual = 0.00168337, No Iterations 4
diagonalPCG:  Solving for p, Initial residual = 0.159867, Final residual = 0.0159296, No Iterations 41
time step continuity errors : sum local = 3.21645e-05, global = -1.0636e-06, cumulative = -4.49502e-05
ExecutionTime = 306.899 s  ClockTime = 307 s

Time = 96s

diagonalPBiCGStab:  Solving for Ux, Initial residual = 0.00730255, Final residual = 0.000626495, No Iterations 4
diagonalPBiCGStab:  Solving for Uy, Initial residual = 0.0153285, Final residual = 0.00142282, No Iterations 3
diagonalPBiCGStab:  Solving for Uz, Initial residual = 0.0185895, Final residual = 0.00148272, No Iterations 4
diagonalPCG:  Solving for p, Initial residual = 0.154258, Final residual = 0.0153587, No Iterations 201
time step continuity errors : sum local = 3.13896e-05, global = -2.14426e-06, cumulative = -4.70945e-05
ExecutionTime = 308.949 s  ClockTime = 309 s

Time = 97s

diagonalPBiCGStab:  Solving for Ux, Initial residual = 0.00694321, Final residual = 0.000609342, No Iterations 4
diagonalPBiCGStab:  Solving for Uy, Initial residual = 0.016604, Final residual = 0.00160354, No Iterations 3
diagonalPBiCGStab:  Solving for Uz, Initial residual = 0.0188487, Final residual = 0.00152773, No Iterations 4
diagonalPCG:  Solving for p, Initial residual = 0.153441, Final residual = 0.0152876, No Iterations 581
time step continuity errors : sum local = 3.03962e-05, global = 3.42366e-07, cumulative = -4.67521e-05
ExecutionTime = 313.91 s  ClockTime = 314 s

Time = 98s

diagonalPBiCGStab:  Solving for Ux, Initial residual = 0.0104295, Final residual = 0.00089917, No Iterations 3
diagonalPBiCGStab:  Solving for Uy, Initial residual = 0.0167723, Final residual = 0.00153079, No Iterations 4
diagonalPBiCGStab:  Solving for Uz, Initial residual = 0.0194006, Final residual = 0.00157345, No Iterations 4
diagonalPCG:  Solving for p, Initial residual = 0.185626, Final residual = 0.0185512, No Iterations 96
time step continuity errors : sum local = 3.19514e-05, global = -1.10636e-06, cumulative = -4.78584e-05
ExecutionTime = 315.179 s  ClockTime = 315 s

Time = 99s

diagonalPBiCGStab:  Solving for Ux, Initial residual = 0.0103481, Final residual = 0.000829558, No Iterations 3
diagonalPBiCGStab:  Solving for Uy, Initial residual = 0.014496, Final residual = 0.00128908, No Iterations 4
diagonalPBiCGStab:  Solving for Uz, Initial residual = 0.0182611, Final residual = 0.00138097, No Iterations 5
diagonalPCG:  Solving for p, Initial residual = 0.180892, Final residual = 0.0179398, No Iterations 192
time step continuity errors : sum local = 3.10231e-05, global = -2.0132e-07, cumulative = -4.80598e-05
ExecutionTime = 317.192 s  ClockTime = 317 s

Time = 100s

diagonalPBiCGStab:  Solving for Ux, Initial residual = 0.00932959, Final residual = 0.000766196, No Iterations 3
diagonalPBiCGStab:  Solving for Uy, Initial residual = 0.014233, Final residual = 0.00121616, No Iterations 4
diagonalPBiCGStab:  Solving for Uz, Initial residual = 0.0185318, Final residual = 0.0015087, No Iterations 4
diagonalPCG:  Solving for p, Initial residual = 0.1805, Final residual = 0.0179607, No Iterations 87
time step continuity errors : sum local = 3.00064e-05, global = 2.65222e-06, cumulative = -4.54075e-05
ExecutionTime = 318.396 s  ClockTime = 318 s

Time = 101s

diagonalPBiCGStab:  Solving for Ux, Initial residual = 0.00908814, Final residual = 0.000775811, No Iterations 3
diagonalPBiCGStab:  Solving for Uy, Initial residual = 0.0143495, Final residual = 0.00124538, No Iterations 4
diagonalPBiCGStab:  Solving for Uz, Initial residual = 0.0182483, Final residual = 0.00150986, No Iterations 4
diagonalPCG:  Solving for p, Initial residual = 0.177223, Final residual = 0.0177142, No Iterations 94
time step continuity errors : sum local = 2.93968e-05, global = 3.9996e-06, cumulative = -4.1408e-05
ExecutionTime = 319.651 s  ClockTime = 319 s

Time = 102s

diagonalPBiCGStab:  Solving for Ux, Initial residual = 0.00882369, Final residual = 0.00078347, No Iterations 3
diagonalPBiCGStab:  Solving for Uy, Initial residual = 0.0154664, Final residual = 0.00142972, No Iterations 3
diagonalPBiCGStab:  Solving for Uz, Initial residual = 0.0183925, Final residual = 0.00145621, No Iterations 4
diagonalPCG:  Solving for p, Initial residual = 0.175855, Final residual = 0.0175439, No Iterations 470
time step continuity errors : sum local = 2.88627e-05, global = 1.95319e-07, cumulative = -4.12126e-05
ExecutionTime = 323.737 s  ClockTime = 323 s

Time = 103s

diagonalPBiCGStab:  Solving for Ux, Initial residual = 0.00860327, Final residual = 0.000712336, No Iterations 4
diagonalPBiCGStab:  Solving for Uy, Initial residual = 0.0171255, Final residual = 0.00168548, No Iterations 4
diagonalPBiCGStab:  Solving for Uz, Initial residual = 0.0196575, Final residual = 0.00152793, No Iterations 4
diagonalPCG:  Solving for p, Initial residual = 0.158896, Final residual = 0.0157632, No Iterations 96
time step continuity errors : sum local = 3.29591e-05, global = -4.74465e-07, cumulative = -4.16871e-05
ExecutionTime = 325.021 s  ClockTime = 325 s

Time = 104s

diagonalPBiCGStab:  Solving for Ux, Initial residual = 0.00824482, Final residual = 0.000612207, No Iterations 4
diagonalPBiCGStab:  Solving for Uy, Initial residual = 0.0158946, Final residual = 0.00133569, No Iterations 4
diagonalPBiCGStab:  Solving for Uz, Initial residual = 0.0187776, Final residual = 0.00152617, No Iterations 4
diagonalPCG:  Solving for p, Initial residual = 0.153893, Final residual = 0.0152265, No Iterations 252
time step continuity errors : sum local = 3.2301e-05, global = -1.33892e-06, cumulative = -4.3026e-05
ExecutionTime = 327.491 s  ClockTime = 327 s

Time = 105s

diagonalPBiCGStab:  Solving for Ux, Initial residual = 0.00830313, Final residual = 0.000636684, No Iterations 4
diagonalPBiCGStab:  Solving for Uy, Initial residual = 0.0162649, Final residual = 0.00156364, No Iterations 3
diagonalPBiCGStab:  Solving for Uz, Initial residual = 0.0187347, Final residual = 0.00154515, No Iterations 4
diagonalPCG:  Solving for p, Initial residual = 0.15494, Final residual = 0.0152643, No Iterations 540
time step continuity errors : sum local = 3.1695e-05, global = -4.59976e-07, cumulative = -4.3486e-05
ExecutionTime = 332.177 s  ClockTime = 332 s

Time = 106s

diagonalPBiCGStab:  Solving for Ux, Initial residual = 0.00951109, Final residual = 0.000870983, No Iterations 3
diagonalPBiCGStab:  Solving for Uy, Initial residual = 0.0159996, Final residual = 0.0012498, No Iterations 4
diagonalPBiCGStab:  Solving for Uz, Initial residual = 0.0194287, Final residual = 0.0015572, No Iterations 4
diagonalPCG:  Solving for p, Initial residual = 0.200636, Final residual = 0.0200496, No Iterations 137
time step continuity errors : sum local = 3.27472e-05, global = 5.14898e-07, cumulative = -4.29711e-05
ExecutionTime = 333.775 s  ClockTime = 333 s

Time = 107s

diagonalPBiCGStab:  Solving for Ux, Initial residual = 0.00908855, Final residual = 0.000641156, No Iterations 4
diagonalPBiCGStab:  Solving for Uy, Initial residual = 0.0148466, Final residual = 0.00143723, No Iterations 4
diagonalPBiCGStab:  Solving for Uz, Initial residual = 0.018375, Final residual = 0.0015885, No Iterations 4
diagonalPCG:  Solving for p, Initial residual = 0.199395, Final residual = 0.019836, No Iterations 242
time step continuity errors : sum local = 3.22649e-05, global = 2.11676e-06, cumulative = -4.08543e-05
ExecutionTime = 336.165 s  ClockTime = 336 s

Time = 108s

diagonalPBiCGStab:  Solving for Ux, Initial residual = 0.00870635, Final residual = 0.00065436, No Iterations 4
diagonalPBiCGStab:  Solving for Uy, Initial residual = 0.0151641, Final residual = 0.00143124, No Iterations 4
diagonalPBiCGStab:  Solving for Uz, Initial residual = 0.018561, Final residual = 0.00158568, No Iterations 4
diagonalPCG:  Solving for p, Initial residual = 0.204752, Final residual = 0.0202753, No Iterations 569
time step continuity errors : sum local = 3.20988e-05, global = 3.44849e-08, cumulative = -4.08199e-05
ExecutionTime = 341.023 s  ClockTime = 341 s

Time = 109s

diagonalPBiCGStab:  Solving for Ux, Initial residual = 0.0125248, Final residual = 0.000988268, No Iterations 3
diagonalPBiCGStab:  Solving for Uy, Initial residual = 0.0174147, Final residual = 0.00141186, No Iterations 4
diagonalPBiCGStab:  Solving for Uz, Initial residual = 0.0201219, Final residual = 0.00173036, No Iterations 4
diagonalPCG:  Solving for p, Initial residual = 0.161557, Final residual = 0.0161549, No Iterations 265
time step continuity errors : sum local = 3.79034e-05, global = 3.0167e-06, cumulative = -3.78032e-05
ExecutionTime = 343.597 s  ClockTime = 343 s

Time = 110s

diagonalPBiCGStab:  Solving for Ux, Initial residual = 0.0121934, Final residual = 0.000893685, No Iterations 3
diagonalPBiCGStab:  Solving for Uy, Initial residual = 0.0171961, Final residual = 0.00169018, No Iterations 3
diagonalPBiCGStab:  Solving for Uz, Initial residual = 0.0186914, Final residual = 0.00144788, No Iterations 4
diagonalPCG:  Solving for p, Initial residual = 0.155058, Final residual = 0.0154476, No Iterations 209
time step continuity errors : sum local = 3.67903e-05, global = -1.14037e-06, cumulative = -3.89435e-05
ExecutionTime = 345.732 s  ClockTime = 345 s

Time = 111s

diagonalPBiCGStab:  Solving for Ux, Initial residual = 0.0123131, Final residual = 0.00069702, No Iterations 4
diagonalPBiCGStab:  Solving for Uy, Initial residual = 0.0178138, Final residual = 0.00140587, No Iterations 4
diagonalPBiCGStab:  Solving for Uz, Initial residual = 0.0182202, Final residual = 0.00156633, No Iterations 4
diagonalPCG:  Solving for p, Initial residual = 0.152832, Final residual = 0.0152459, No Iterations 91
time step continuity errors : sum local = 3.62827e-05, global = -3.22676e-06, cumulative = -4.21703e-05
ExecutionTime = 346.963 s  ClockTime = 347 s

Time = 112s

diagonalPBiCGStab:  Solving for Ux, Initial residual = 0.0119805, Final residual = 0.000634583, No Iterations 4
diagonalPBiCGStab:  Solving for Uy, Initial residual = 0.0162971, Final residual = 0.00128278, No Iterations 4
diagonalPBiCGStab:  Solving for Uz, Initial residual = 0.0179047, Final residual = 0.00143491, No Iterations 4
diagonalPCG:  Solving for p, Initial residual = 0.151726, Final residual = 0.0150542, No Iterations 576
time step continuity errors : sum local = 3.5737e-05, global = -8.85616e-07, cumulative = -4.30559e-05
ExecutionTime = 351.86 s  ClockTime = 352 s

Time = 113s

diagonalPBiCGStab:  Solving for Ux, Initial residual = 0.00793933, Final residual = 0.000720285, No Iterations 4
diagonalPBiCGStab:  Solving for Uy, Initial residual = 0.0150902, Final residual = 0.00133468, No Iterations 4
diagonalPBiCGStab:  Solving for Uz, Initial residual = 0.0191654, Final residual = 0.00157017, No Iterations 4
diagonalPCG:  Solving for p, Initial residual = 0.22557, Final residual = 0.0224824, No Iterations 54
time step continuity errors : sum local = 3.69065e-05, global = -1.0409e-06, cumulative = -4.40968e-05
ExecutionTime = 352.832 s  ClockTime = 353 s

Time = 114s

diagonalPBiCGStab:  Solving for Ux, Initial residual = 0.00761916, Final residual = 0.000606194, No Iterations 4
diagonalPBiCGStab:  Solving for Uy, Initial residual = 0.0138814, Final residual = 0.00124477, No Iterations 4
diagonalPBiCGStab:  Solving for Uz, Initial residual = 0.0169541, Final residual = 0.00147466, No Iterations 4
diagonalPCG:  Solving for p, Initial residual = 0.220956, Final residual = 0.0218568, No Iterations 169
time step continuity errors : sum local = 3.58492e-05, global = 2.98526e-06, cumulative = -4.11115e-05
ExecutionTime = 354.653 s  ClockTime = 354 s

Time = 115s

diagonalPBiCGStab:  Solving for Ux, Initial residual = 0.00722346, Final residual = 0.000547868, No Iterations 4
diagonalPBiCGStab:  Solving for Uy, Initial residual = 0.0148534, Final residual = 0.00123146, No Iterations 4
diagonalPBiCGStab:  Solving for Uz, Initial residual = 0.0169418, Final residual = 0.00143943, No Iterations 4
diagonalPCG:  Solving for p, Initial residual = 0.213303, Final residual = 0.0208836, No Iterations 551
time step continuity errors : sum local = 3.42699e-05, global = -3.89533e-07, cumulative = -4.15011e-05
ExecutionTime = 359.383 s  ClockTime = 359 s

Time = 116s

diagonalPBiCGStab:  Solving for Ux, Initial residual = 0.0104186, Final residual = 0.00104129, No Iterations 3
diagonalPBiCGStab:  Solving for Uy, Initial residual = 0.0171368, Final residual = 0.00151188, No Iterations 4
diagonalPBiCGStab:  Solving for Uz, Initial residual = 0.0182791, Final residual = 0.00143549, No Iterations 4
diagonalPCG:  Solving for p, Initial residual = 0.161201, Final residual = 0.0160783, No Iterations 69
time step continuity errors : sum local = 3.67246e-05, global = 1.15778e-06, cumulative = -4.03433e-05
ExecutionTime = 360.461 s  ClockTime = 360 s

Time = 117s

diagonalPBiCGStab:  Solving for Ux, Initial residual = 0.0102218, Final residual = 0.000748481, No Iterations 3
diagonalPBiCGStab:  Solving for Uy, Initial residual = 0.0158765, Final residual = 0.00127396, No Iterations 4
diagonalPBiCGStab:  Solving for Uz, Initial residual = 0.0176087, Final residual = 0.0015556, No Iterations 4
diagonalPCG:  Solving for p, Initial residual = 0.159054, Final residual = 0.0158638, No Iterations 208
time step continuity errors : sum local = 3.64853e-05, global = -7.99194e-07, cumulative = -4.11425e-05
ExecutionTime = 362.582 s  ClockTime = 362 s

Time = 118s

diagonalPBiCGStab:  Solving for Ux, Initial residual = 0.00984882, Final residual = 0.000634409, No Iterations 4
diagonalPBiCGStab:  Solving for Uy, Initial residual = 0.0171081, Final residual = 0.00135903, No Iterations 4
diagonalPBiCGStab:  Solving for Uz, Initial residual = 0.0182949, Final residual = 0.00147996, No Iterations 4
diagonalPCG:  Solving for p, Initial residual = 0.158763, Final residual = 0.0157748, No Iterations 258
time step continuity errors : sum local = 3.60164e-05, global = -2.35546e-06, cumulative = -4.3498e-05
ExecutionTime = 365.069 s  ClockTime = 365 s

Time = 119s

diagonalPBiCGStab:  Solving for Ux, Initial residual = 0.00949421, Final residual = 0.000629926, No Iterations 4
diagonalPBiCGStab:  Solving for Uy, Initial residual = 0.0164262, Final residual = 0.00133452, No Iterations 4
diagonalPBiCGStab:  Solving for Uz, Initial residual = 0.0178215, Final residual = 0.00161456, No Iterations 4
diagonalPCG:  Solving for p, Initial residual = 0.168533, Final residual = 0.016606, No Iterations 601
time step continuity errors : sum local = 3.63393e-05, global = -4.62852e-07, cumulative = -4.39608e-05
ExecutionTime = 370.138 s  ClockTime = 370 s

Time = 120s

diagonalPBiCGStab:  Solving for Ux, Initial residual = 0.0102107, Final residual = 0.000745318, No Iterations 4
diagonalPBiCGStab:  Solving for Uy, Initial residual = 0.0145055, Final residual = 0.00137148, No Iterations 4
diagonalPBiCGStab:  Solving for Uz, Initial residual = 0.0193511, Final residual = 0.00156633, No Iterations 4
diagonalPCG:  Solving for p, Initial residual = 0.227411, Final residual = 0.0225028, No Iterations 211
time step continuity errors : sum local = 4.0429e-05, global = -1.06034e-06, cumulative = -4.50211e-05
ExecutionTime = 372.311 s  ClockTime = 372 s

Time = 121s

diagonalPBiCGStab:  Solving for Ux, Initial residual = 0.0103876, Final residual = 0.0007513, No Iterations 4
diagonalPBiCGStab:  Solving for Uy, Initial residual = 0.0134414, Final residual = 0.00107733, No Iterations 4
diagonalPBiCGStab:  Solving for Uz, Initial residual = 0.0185078, Final residual = 0.00171373, No Iterations 4
diagonalPCG:  Solving for p, Initial residual = 0.225438, Final residual = 0.0222121, No Iterations 50
time step continuity errors : sum local = 3.97346e-05, global = 3.08512e-06, cumulative = -4.1936e-05
ExecutionTime = 373.245 s  ClockTime = 373 s

Time = 122s

diagonalPBiCGStab:  Solving for Ux, Initial residual = 0.0102469, Final residual = 0.000622233, No Iterations 4
diagonalPBiCGStab:  Solving for Uy, Initial residual = 0.0135742, Final residual = 0.00114852, No Iterations 4
diagonalPBiCGStab:  Solving for Uz, Initial residual = 0.0180239, Final residual = 0.00148214, No Iterations 4
diagonalPCG:  Solving for p, Initial residual = 0.219239, Final residual = 0.0216963, No Iterations 489
time step continuity errors : sum local = 3.83982e-05, global = 1.04816e-06, cumulative = -4.08879e-05
ExecutionTime = 377.476 s  ClockTime = 377 s

Time = 123s

diagonalPBiCGStab:  Solving for Ux, Initial residual = 0.0064662, Final residual = 0.000521423, No Iterations 4
diagonalPBiCGStab:  Solving for Uy, Initial residual = 0.0168864, Final residual = 0.00127474, No Iterations 4
diagonalPBiCGStab:  Solving for Uz, Initial residual = 0.0193361, Final residual = 0.00152458, No Iterations 4
diagonalPCG:  Solving for p, Initial residual = 0.185392, Final residual = 0.0184795, No Iterations 59
time step continuity errors : sum local = 3.65692e-05, global = 1.69611e-06, cumulative = -3.91918e-05
ExecutionTime = 378.489 s  ClockTime = 378 s

Time = 124s

diagonalPBiCGStab:  Solving for Ux, Initial residual = 0.00638629, Final residual = 0.00059546, No Iterations 4
diagonalPBiCGStab:  Solving for Uy, Initial residual = 0.0159616, Final residual = 0.0012625, No Iterations 4
diagonalPBiCGStab:  Solving for Uz, Initial residual = 0.0174865, Final residual = 0.00152267, No Iterations 4
diagonalPCG:  Solving for p, Initial residual = 0.184298, Final residual = 0.0179226, No Iterations 27
time step continuity errors : sum local = 3.56035e-05, global = -1.69697e-06, cumulative = -4.08887e-05
ExecutionTime = 379.24 s  ClockTime = 379 s

Time = 125s

diagonalPBiCGStab:  Solving for Ux, Initial residual = 0.00613121, Final residual = 0.00049574, No Iterations 4
diagonalPBiCGStab:  Solving for Uy, Initial residual = 0.0155738, Final residual = 0.001178, No Iterations 4
diagonalPBiCGStab:  Solving for Uz, Initial residual = 0.0173292, Final residual = 0.00135342, No Iterations 4
diagonalPCG:  Solving for p, Initial residual = 0.18115, Final residual = 0.0181065, No Iterations 71
time step continuity errors : sum local = 3.58989e-05, global = -4.72193e-06, cumulative = -4.56107e-05
ExecutionTime = 380.327 s  ClockTime = 380 s

Time = 126s

diagonalPBiCGStab:  Solving for Ux, Initial residual = 0.00621951, Final residual = 0.000499678, No Iterations 4
diagonalPBiCGStab:  Solving for Uy, Initial residual = 0.0142748, Final residual = 0.00122329, No Iterations 4
diagonalPBiCGStab:  Solving for Uz, Initial residual = 0.0177539, Final residual = 0.00146086, No Iterations 4
diagonalPCG:  Solving for p, Initial residual = 0.179239, Final residual = 0.0179197, No Iterations 510
time step continuity errors : sum local = 3.54314e-05, global = 9.50568e-07, cumulative = -4.46601e-05
ExecutionTime = 384.716 s  ClockTime = 384 s

Time = 127s

diagonalPBiCGStab:  Solving for Ux, Initial residual = 0.0124082, Final residual = 0.000927662, No Iterations 3
diagonalPBiCGStab:  Solving for Uy, Initial residual = 0.0144265, Final residual = 0.000730089, No Iterations 6
diagonalPBiCGStab:  Solving for Uz, Initial residual = 0.0192877, Final residual = 0.00157097, No Iterations 4
diagonalPCG:  Solving for p, Initial residual = 0.206714, Final residual = 0.0204487, No Iterations 56
time step continuity errors : sum local = 4.05012e-05, global = 8.39364e-08, cumulative = -4.45762e-05
ExecutionTime = 385.718 s  ClockTime = 385 s

Time = 128s

diagonalPBiCGStab:  Solving for Ux, Initial residual = 0.0120721, Final residual = 0.000925724, No Iterations 3
diagonalPBiCGStab:  Solving for Uy, Initial residual = 0.0129203, Final residual = 0.00100001, No Iterations 4
diagonalPBiCGStab:  Solving for Uz, Initial residual = 0.016969, Final residual = 0.00143884, No Iterations 4
diagonalPCG:  Solving for p, Initial residual = 0.198523, Final residual = 0.0197009, No Iterations 157
time step continuity errors : sum local = 3.93597e-05, global = 2.81264e-06, cumulative = -4.17635e-05
ExecutionTime = 387.45 s  ClockTime = 387 s

Time = 129s

diagonalPBiCGStab:  Solving for Ux, Initial residual = 0.0116972, Final residual = 0.000830265, No Iterations 3
diagonalPBiCGStab:  Solving for Uy, Initial residual = 0.0144161, Final residual = 0.00138557, No Iterations 4
diagonalPBiCGStab:  Solving for Uz, Initial residual = 0.0167692, Final residual = 0.001492, No Iterations 4
diagonalPCG:  Solving for p, Initial residual = 0.194954, Final residual = 0.01939, No Iterations 578
time step continuity errors : sum local = 3.77232e-05, global = 4.71109e-07, cumulative = -4.12924e-05
ExecutionTime = 392.37 s  ClockTime = 392 s

Time = 130s

diagonalPBiCGStab:  Solving for Ux, Initial residual = 0.00803092, Final residual = 0.000753189, No Iterations 4
diagonalPBiCGStab:  Solving for Uy, Initial residual = 0.0168627, Final residual = 0.00161514, No Iterations 4
diagonalPBiCGStab:  Solving for Uz, Initial residual = 0.0188568, Final residual = 0.00178257, No Iterations 4
diagonalPCG:  Solving for p, Initial residual = 0.193647, Final residual = 0.0190628, No Iterations 97
time step continuity errors : sum local = 3.9099e-05, global = 2.57233e-06, cumulative = -3.87201e-05
ExecutionTime = 393.663 s  ClockTime = 393 s

Time = 131s

diagonalPBiCGStab:  Solving for Ux, Initial residual = 0.00808118, Final residual = 0.000751451, No Iterations 4
diagonalPBiCGStab:  Solving for Uy, Initial residual = 0.0148362, Final residual = 0.00147469, No Iterations 4
diagonalPBiCGStab:  Solving for Uz, Initial residual = 0.0167903, Final residual = 0.0016366, No Iterations 4
diagonalPCG:  Solving for p, Initial residual = 0.185361, Final residual = 0.0182457, No Iterations 163
time step continuity errors : sum local = 3.78746e-05, global = 2.62378e-07, cumulative = -3.84577e-05
ExecutionTime = 395.44 s  ClockTime = 395 s

Time = 132s

diagonalPBiCGStab:  Solving for Ux, Initial residual = 0.00765875, Final residual = 0.000591198, No Iterations 4
diagonalPBiCGStab:  Solving for Uy, Initial residual = 0.0149865, Final residual = 0.00137635, No Iterations 4
[...]
time step continuity errors : sum local = 0.000153565, global = 3.08897e-06, cumulative = -0.000152447
ExecutionTime = 1040.61 s  ClockTime = 1040 s

Time = 468s

diagonalPBiCGStab:  Solving for Ux, Initial residual = 0.0126623, Final residual = 0.00121152, No Iterations 4
diagonalPBiCGStab:  Solving for Uy, Initial residual = 0.0190376, Final residual = 0.00187531, No Iterations 4
diagonalPBiCGStab:  Solving for Uz, Initial residual = 0.0202425, Final residual = 0.00132007, No Iterations 5
diagonalPCG:  Solving for p, Initial residual = 0.163728, Final residual = 0.016189, No Iterations 39
time step continuity errors : sum local = 0.000150156, global = -8.15283e-06, cumulative = -0.0001606
ExecutionTime = 1041.48 s  ClockTime = 1041 s

Time = 469s

diagonalPBiCGStab:  Solving for Ux, Initial residual = 0.012183, Final residual = 0.00116158, No Iterations 4
diagonalPBiCGStab:  Solving for Uy, Initial residual = 0.0184843, Final residual = 0.00170637, No Iterations 4
diagonalPBiCGStab:  Solving for Uz, Initial residual = 0.0196717, Final residual = 0.00179431, No Iterations 4
diagonalPCG:  Solving for p, Initial residual = 0.156372, Final residual = 0.0155114, No Iterations 192
time step continuity errors : sum local = 0.000144224, global = -1.59124e-05, cumulative = -0.000176512
ExecutionTime = 1043.5 s  ClockTime = 1043 s

Time = 470s

diagonalPBiCGStab:  Solving for Ux, Initial residual = 0.0133987, Final residual = 0.00126596, No Iterations 4
diagonalPBiCGStab:  Solving for Uy, Initial residual = 0.0203351, Final residual = 0.00165764, No Iterations 4
diagonalPBiCGStab:  Solving for Uz, Initial residual = 0.0210108, Final residual = 0.00187589, No Iterations 5
diagonalPCG:  Solving for p, Initial residual = 0.162509, Final residual = 0.0160586, No Iterations 20
time step continuity errors : sum local = 0.000142489, global = -3.0492e-05, cumulative = -0.000207004
ExecutionTime = 1044.23 s  ClockTime = 1044 s

Time = 471s

diagonalPBiCGStab:  Solving for Ux, Initial residual = 0.0130806, Final residual = 0.0011674, No Iterations 4
diagonalPBiCGStab:  Solving for Uy, Initial residual = 0.0193318, Final residual = 0.00175951, No Iterations 4
diagonalPBiCGStab:  Solving for Uz, Initial residual = 0.0198437, Final residual = 0.00182557, No Iterations 4
diagonalPCG:  Solving for p, Initial residual = 0.165657, Final residual = 0.0165077, No Iterations 530
time step continuity errors : sum local = 0.000143137, global = -1.02187e-05, cumulative = -0.000217223
ExecutionTime = 1048.84 s  ClockTime = 1049 s

Time = 472s

diagonalPBiCGStab:  Solving for Ux, Initial residual = 0.0126955, Final residual = 0.00104112, No Iterations 4
diagonalPBiCGStab:  Solving for Uy, Initial residual = 0.021076, Final residual = 0.00163518, No Iterations 5
diagonalPBiCGStab:  Solving for Uz, Initial residual = 0.0211154, Final residual = 0.00209928, No Iterations 5
diagonalPCG:  Solving for p, Initial residual = 0.235053, Final residual = 0.0234635, No Iterations 26
time step continuity errors : sum local = 0.000153365, global = -1.20002e-05, cumulative = -0.000229223
ExecutionTime = 1049.63 s  ClockTime = 1049 s

Time = 473s

diagonalPBiCGStab:  Solving for Ux, Initial residual = 0.0125671, Final residual = 0.00116374, No Iterations 4
diagonalPBiCGStab:  Solving for Uy, Initial residual = 0.0191324, Final residual = 0.00178287, No Iterations 4
diagonalPBiCGStab:  Solving for Uz, Initial residual = 0.0194957, Final residual = 0.00125609, No Iterations 5
diagonalPCG:  Solving for p, Initial residual = 0.231429, Final residual = 0.0231263, No Iterations 159
time step continuity errors : sum local = 0.000151301, global = 1.43083e-05, cumulative = -0.000214915
ExecutionTime = 1051.41 s  ClockTime = 1051 s

Time = 474s

diagonalPBiCGStab:  Solving for Ux, Initial residual = 0.0135174, Final residual = 0.00126678, No Iterations 4
diagonalPBiCGStab:  Solving for Uy, Initial residual = 0.020991, Final residual = 0.00206068, No Iterations 4
diagonalPBiCGStab:  Solving for Uz, Initial residual = 0.0198783, Final residual = 0.00162234, No Iterations 4
diagonalPCG:  Solving for p, Initial residual = 0.235455, Final residual = 0.0233386, No Iterations 385
time step continuity errors : sum local = 0.000150241, global = 2.62631e-06, cumulative = -0.000212288
ExecutionTime = 1054.91 s  ClockTime = 1055 s

Time = 475s

diagonalPBiCGStab:  Solving for Ux, Initial residual = 0.0156243, Final residual = 0.00126258, No Iterations 4
diagonalPBiCGStab:  Solving for Uy, Initial residual = 0.0214564, Final residual = 0.00170344, No Iterations 5
diagonalPBiCGStab:  Solving for Uz, Initial residual = 0.0216631, Final residual = 0.00214933, No Iterations 4
diagonalPCG:  Solving for p, Initial residual = 0.161489, Final residual = 0.0159521, No Iterations 153
time step continuity errors : sum local = 0.000157309, global = 1.44356e-05, cumulative = -0.000197853
ExecutionTime = 1056.65 s  ClockTime = 1056 s

Time = 476s

diagonalPBiCGStab:  Solving for Ux, Initial residual = 0.01519, Final residual = 0.000774127, No Iterations 5
diagonalPBiCGStab:  Solving for Uy, Initial residual = 0.0200137, Final residual = 0.00139138, No Iterations 5
diagonalPBiCGStab:  Solving for Uz, Initial residual = 0.0195285, Final residual = 0.00134858, No Iterations 5
diagonalPCG:  Solving for p, Initial residual = 0.152677, Final residual = 0.0150629, No Iterations 141
time step continuity errors : sum local = 0.000154625, global = 3.40954e-06, cumulative = -0.000194443
ExecutionTime = 1058.32 s  ClockTime = 1058 s

Time = 477s

diagonalPBiCGStab:  Solving for Ux, Initial residual = 0.0145185, Final residual = 0.000718763, No Iterations 5
diagonalPBiCGStab:  Solving for Uy, Initial residual = 0.0204351, Final residual = 0.00133641, No Iterations 5
diagonalPBiCGStab:  Solving for Uz, Initial residual = 0.0197415, Final residual = 0.00128966, No Iterations 5
diagonalPCG:  Solving for p, Initial residual = 0.149405, Final residual = 0.0147901, No Iterations 36
time step continuity errors : sum local = 0.000152826, global = -4.67075e-06, cumulative = -0.000199114
ExecutionTime = 1059.18 s  ClockTime = 1059 s

Time = 478s

diagonalPBiCGStab:  Solving for Ux, Initial residual = 0.0140013, Final residual = 0.0012533, No Iterations 6
diagonalPBiCGStab:  Solving for Uy, Initial residual = 0.020501, Final residual = 0.00129708, No Iterations 5
diagonalPBiCGStab:  Solving for Uz, Initial residual = 0.0200517, Final residual = 0.00147596, No Iterations 5
diagonalPCG:  Solving for p, Initial residual = 0.149077, Final residual = 0.0148667, No Iterations 78
time step continuity errors : sum local = 0.000152525, global = -2.23451e-05, cumulative = -0.000221459
ExecutionTime = 1060.39 s  ClockTime = 1060 s

Time = 479s

diagonalPBiCGStab:  Solving for Ux, Initial residual = 0.0137513, Final residual = 0.00107851, No Iterations 4
diagonalPBiCGStab:  Solving for Uy, Initial residual = 0.0210721, Final residual = 0.00138807, No Iterations 5
diagonalPBiCGStab:  Solving for Uz, Initial residual = 0.0204879, Final residual = 0.00177834, No Iterations 4
diagonalPCG:  Solving for p, Initial residual = 0.156851, Final residual = 0.0155516, No Iterations 411
time step continuity errors : sum local = 0.000153733, global = -5.52723e-06, cumulative = -0.000226986
ExecutionTime = 1064.1 s  ClockTime = 1064 s

Time = 480s

diagonalPBiCGStab:  Solving for Ux, Initial residual = 0.0112039, Final residual = 0.00102963, No Iterations 4
diagonalPBiCGStab:  Solving for Uy, Initial residual = 0.022521, Final residual = 0.00201747, No Iterations 4
diagonalPBiCGStab:  Solving for Uz, Initial residual = 0.020695, Final residual = 0.0020359, No Iterations 4
diagonalPCG:  Solving for p, Initial residual = 0.265392, Final residual = 0.0264505, No Iterations 23
time step continuity errors : sum local = 0.000159876, global = -1.9225e-05, cumulative = -0.000246211
ExecutionTime = 1064.85 s  ClockTime = 1065 s

Time = 481s

diagonalPBiCGStab:  Solving for Ux, Initial residual = 0.0107493, Final residual = 0.00100639, No Iterations 4
diagonalPBiCGStab:  Solving for Uy, Initial residual = 0.0209109, Final residual = 0.00135105, No Iterations 5
diagonalPBiCGStab:  Solving for Uz, Initial residual = 0.0193404, Final residual = 0.00124232, No Iterations 5
diagonalPCG:  Solving for p, Initial residual = 0.262406, Final residual = 0.0261291, No Iterations 95
time step continuity errors : sum local = 0.000156784, global = 1.2433e-06, cumulative = -0.000244968
ExecutionTime = 1066.15 s  ClockTime = 1066 s

Time = 482s

diagonalPBiCGStab:  Solving for Ux, Initial residual = 0.0103747, Final residual = 0.000984534, No Iterations 5
diagonalPBiCGStab:  Solving for Uy, Initial residual = 0.0205582, Final residual = 0.00084337, No Iterations 6
diagonalPBiCGStab:  Solving for Uz, Initial residual = 0.0196315, Final residual = 0.0018142, No Iterations 4
diagonalPCG:  Solving for p, Initial residual = 0.256211, Final residual = 0.0253697, No Iterations 40
time step continuity errors : sum local = 0.000152952, global = 7.16421e-06, cumulative = -0.000237804
ExecutionTime = 1067.06 s  ClockTime = 1067 s

Time = 483s

diagonalPBiCGStab:  Solving for Ux, Initial residual = 0.0101646, Final residual = 0.000706448, No Iterations 5
diagonalPBiCGStab:  Solving for Uy, Initial residual = 0.019793, Final residual = 0.00184708, No Iterations 4
diagonalPBiCGStab:  Solving for Uz, Initial residual = 0.0193888, Final residual = 0.00127711, No Iterations 5
diagonalPCG:  Solving for p, Initial residual = 0.251099, Final residual = 0.0248519, No Iterations 555
time step continuity errors : sum local = 0.000150498, global = 1.10324e-05, cumulative = -0.000226771
ExecutionTime = 1071.87 s  ClockTime = 1072 s

Time = 484s

diagonalPBiCGStab:  Solving for Ux, Initial residual = 0.0149101, Final residual = 0.00134155, No Iterations 4
diagonalPBiCGStab:  Solving for Uy, Initial residual = 0.0222603, Final residual = 0.00145254, No Iterations 5
diagonalPBiCGStab:  Solving for Uz, Initial residual = 0.0220181, Final residual = 0.00137032, No Iterations 5
diagonalPCG:  Solving for p, Initial residual = 0.164726, Final residual = 0.016403, No Iterations 37
time step continuity errors : sum local = 0.000158998, global = 1.89185e-05, cumulative = -0.000207853
ExecutionTime = 1072.74 s  ClockTime = 1073 s

Time = 485s

diagonalPBiCGStab:  Solving for Ux, Initial residual = 0.0145673, Final residual = 0.000733215, No Iterations 5
diagonalPBiCGStab:  Solving for Uy, Initial residual = 0.0202355, Final residual = 0.00169261, No Iterations 4
diagonalPBiCGStab:  Solving for Uz, Initial residual = 0.0204465, Final residual = 0.0016443, No Iterations 4
diagonalPCG:  Solving for p, Initial residual = 0.161073, Final residual = 0.0160208, No Iterations 125
time step continuity errors : sum local = 0.000156318, global = -7.14445e-06, cumulative = -0.000214997
ExecutionTime = 1074.27 s  ClockTime = 1074 s

Time = 486s

diagonalPBiCGStab:  Solving for Ux, Initial residual = 0.0137142, Final residual = 0.000662815, No Iterations 5
diagonalPBiCGStab:  Solving for Uy, Initial residual = 0.0213001, Final residual = 0.000819944, No Iterations 6
diagonalPBiCGStab:  Solving for Uz, Initial residual = 0.0211013, Final residual = 0.00202196, No Iterations 5
diagonalPCG:  Solving for p, Initial residual = 0.164787, Final residual = 0.0164039, No Iterations 19
time step continuity errors : sum local = 0.000156349, global = -5.67201e-06, cumulative = -0.000220669
ExecutionTime = 1075.02 s  ClockTime = 1075 s

Time = 487s

diagonalPBiCGStab:  Solving for Ux, Initial residual = 0.0136095, Final residual = 0.00116072, No Iterations 6
diagonalPBiCGStab:  Solving for Uy, Initial residual = 0.0213363, Final residual = 0.0005746, No Iterations 7
diagonalPBiCGStab:  Solving for Uz, Initial residual = 0.0213721, Final residual = 0.00202805, No Iterations 5
diagonalPCG:  Solving for p, Initial residual = 0.162382, Final residual = 0.0162086, No Iterations 552
time step continuity errors : sum local = 0.000156397, global = -5.17318e-07, cumulative = -0.000221187
ExecutionTime = 1079.87 s  ClockTime = 1080 s

Time = 488s

diagonalPBiCGStab:  Solving for Ux, Initial residual = 0.0210686, Final residual = 0.00160069, No Iterations 4
diagonalPBiCGStab:  Solving for Uy, Initial residual = 0.0263638, Final residual = 0.00248006, No Iterations 4
diagonalPBiCGStab:  Solving for Uz, Initial residual = 0.0241102, Final residual = 0.0016976, No Iterations 5
diagonalPCG:  Solving for p, Initial residual = 0.234422, Final residual = 0.0230403, No Iterations 21
time step continuity errors : sum local = 0.000180957, global = -1.61622e-05, cumulative = -0.000237349
ExecutionTime = 1080.6 s  ClockTime = 1080 s

Time = 489s

diagonalPBiCGStab:  Solving for Ux, Initial residual = 0.0205003, Final residual = 0.00191651, No Iterations 3
diagonalPBiCGStab:  Solving for Uy, Initial residual = 0.0227186, Final residual = 0.00136403, No Iterations 5
diagonalPBiCGStab:  Solving for Uz, Initial residual = 0.0212453, Final residual = 0.00133881, No Iterations 5
diagonalPCG:  Solving for p, Initial residual = 0.230019, Final residual = 0.0229314, No Iterations 103
time step continuity errors : sum local = 0.000178763, global = 9.04573e-06, cumulative = -0.000228303
ExecutionTime = 1081.96 s  ClockTime = 1082 s

Time = 490s

diagonalPBiCGStab:  Solving for Ux, Initial residual = 0.0199534, Final residual = 0.00159113, No Iterations 4
diagonalPBiCGStab:  Solving for Uy, Initial residual = 0.0233023, Final residual = 0.00191178, No Iterations 4
diagonalPBiCGStab:  Solving for Uz, Initial residual = 0.022284, Final residual = 0.00216987, No Iterations 4
diagonalPCG:  Solving for p, Initial residual = 0.225545, Final residual = 0.0222478, No Iterations 516
time step continuity errors : sum local = 0.000175699, global = 2.38697e-06, cumulative = -0.000225916
ExecutionTime = 1086.48 s  ClockTime = 1086 s

Time = 491s

diagonalPBiCGStab:  Solving for Ux, Initial residual = 0.0158946, Final residual = 0.00145244, No Iterations 4
diagonalPBiCGStab:  Solving for Uy, Initial residual = 0.0256512, Final residual = 0.00247956, No Iterations 4
diagonalPBiCGStab:  Solving for Uz, Initial residual = 0.0262219, Final residual = 0.001688, No Iterations 5
diagonalPCG:  Solving for p, Initial residual = 0.181597, Final residual = 0.0180613, No Iterations 24
time step continuity errors : sum local = 0.000175853, global = 1.77669e-05, cumulative = -0.000208149
ExecutionTime = 1087.24 s  ClockTime = 1087 s

Time = 492s

diagonalPBiCGStab:  Solving for Ux, Initial residual = 0.0152939, Final residual = 0.00132357, No Iterations 4
diagonalPBiCGStab:  Solving for Uy, Initial residual = 0.0222722, Final residual = 0.00173196, No Iterations 4
diagonalPBiCGStab:  Solving for Uz, Initial residual = 0.0234074, Final residual = 0.00159545, No Iterations 5
diagonalPCG:  Solving for p, Initial residual = 0.176337, Final residual = 0.0173272, No Iterations 74
time step continuity errors : sum local = 0.000171571, global = 9.27259e-06, cumulative = -0.000198877
ExecutionTime = 1088.38 s  ClockTime = 1088 s

Time = 493s

diagonalPBiCGStab:  Solving for Ux, Initial residual = 0.0155279, Final residual = 0.00145199, No Iterations 4
diagonalPBiCGStab:  Solving for Uy, Initial residual = 0.0239849, Final residual = 0.00185818, No Iterations 4
diagonalPBiCGStab:  Solving for Uz, Initial residual = 0.024639, Final residual = 0.00189169, No Iterations 6
diagonalPCG:  Solving for p, Initial residual = 0.172899, Final residual = 0.0172229, No Iterations 98
time step continuity errors : sum local = 0.000170138, global = -1.08643e-05, cumulative = -0.000209741
ExecutionTime = 1089.71 s  ClockTime = 1090 s

Time = 494s

diagonalPBiCGStab:  Solving for Ux, Initial residual = 0.0166559, Final residual = 0.000813502, No Iterations 5
diagonalPBiCGStab:  Solving for Uy, Initial residual = 0.0240961, Final residual = 0.00209698, No Iterations 4
diagonalPBiCGStab:  Solving for Uz, Initial residual = 0.0253551, Final residual = 0.00229602, No Iterations 4
diagonalPCG:  Solving for p, Initial residual = 0.178143, Final residual = 0.0177335, No Iterations 551
time step continuity errors : sum local = 0.00017411, global = 2.55743e-06, cumulative = -0.000207183
ExecutionTime = 1094.48 s  ClockTime = 1094 s

Time = 495s

diagonalPBiCGStab:  Solving for Ux, Initial residual = 0.0186571, Final residual = 0.00178752, No Iterations 4
diagonalPBiCGStab:  Solving for Uy, Initial residual = 0.026511, Final residual = 0.000971401, No Iterations 6
diagonalPBiCGStab:  Solving for Uz, Initial residual = 0.0267493, Final residual = 0.00185783, No Iterations 5
diagonalPCG:  Solving for p, Initial residual = 0.24345, Final residual = 0.0242489, No Iterations 65
time step continuity errors : sum local = 0.000184196, global = -1.52545e-05, cumulative = -0.000222438
ExecutionTime = 1095.57 s  ClockTime = 1095 s

Time = 496s

diagonalPBiCGStab:  Solving for Ux, Initial residual = 0.0187652, Final residual = 0.00155836, No Iterations 4
diagonalPBiCGStab:  Solving for Uy, Initial residual = 0.0245466, Final residual = 0.0016536, No Iterations 5
diagonalPBiCGStab:  Solving for Uz, Initial residual = 0.025762, Final residual = 0.00252019, No Iterations 5
diagonalPCG:  Solving for p, Initial residual = 0.241066, Final residual = 0.0239785, No Iterations 25
time step continuity errors : sum local = 0.00018409, global = -2.42391e-05, cumulative = -0.000246677
ExecutionTime = 1096.34 s  ClockTime = 1096 s

Time = 497s

diagonalPBiCGStab:  Solving for Ux, Initial residual = 0.0184351, Final residual = 0.00145429, No Iterations 4
diagonalPBiCGStab:  Solving for Uy, Initial residual = 0.0240122, Final residual = 0.000530482, No Iterations 7
diagonalPBiCGStab:  Solving for Uz, Initial residual = 0.0256968, Final residual = 0.00252889, No Iterations 4
diagonalPCG:  Solving for p, Initial residual = 0.235875, Final residual = 0.0233871, No Iterations 227
time step continuity errors : sum local = 0.000179962, global = 1.95916e-05, cumulative = -0.000227085
ExecutionTime = 1098.68 s  ClockTime = 1098 s

Time = 498s

diagonalPBiCGStab:  Solving for Ux, Initial residual = 0.0172194, Final residual = 0.00149504, No Iterations 4
diagonalPBiCGStab:  Solving for Uy, Initial residual = 0.0244231, Final residual = 0.00211824, No Iterations 4
diagonalPBiCGStab:  Solving for Uz, Initial residual = 0.0272161, Final residual = 0.00243541, No Iterations 4
diagonalPCG:  Solving for p, Initial residual = 0.249232, Final residual = 0.0249091, No Iterations 22
time step continuity errors : sum local = 0.000190967, global = 1.52949e-05, cumulative = -0.00021179
ExecutionTime = 1099.41 s  ClockTime = 1099 s

Time = 499s

diagonalPBiCGStab:  Solving for Ux, Initial residual = 0.0170004, Final residual = 0.000982012, No Iterations 5
diagonalPBiCGStab:  Solving for Uy, Initial residual = 0.023977, Final residual = 0.00203367, No Iterations 4
diagonalPBiCGStab:  Solving for Uz, Initial residual = 0.0268901, Final residual = 0.00106531, No Iterations 6
diagonalPCG:  Solving for p, Initial residual = 0.248768, Final residual = 0.0246834, No Iterations 522
time step continuity errors : sum local = 0.00019076, global = -3.883e-07, cumulative = -0.000212179
ExecutionTime = 1103.97 s  ClockTime = 1104 s

Time = 500s

diagonalPBiCGStab:  Solving for Ux, Initial residual = 0.0172027, Final residual = 0.000958279, No Iterations 5
diagonalPBiCGStab:  Solving for Uy, Initial residual = 0.0274768, Final residual = 0.00252159, No Iterations 4
diagonalPBiCGStab:  Solving for Uz, Initial residual = 0.029753, Final residual = 0.00248175, No Iterations 4
diagonalPCG:  Solving for p, Initial residual = 0.214788, Final residual = 0.0213338, No Iterations 74
time step continuity errors : sum local = 0.000194595, global = 2.02069e-05, cumulative = -0.000191972
ExecutionTime = 1105.5 s  ClockTime = 1105 s

End

Finalising parallel run
