/*---------------------------------------------------------------------------*\
  =========                 |
  \\      /  F ield         | OpenFOAM: The Open Source CFD Toolbox
   \\    /   O peration     | Website:  https://openfoam.org
    \\  /    A nd           | Version:  11
     \\/     M anipulation  |
\*---------------------------------------------------------------------------*/
Build  : 11
Exec   : foamRun
Date   : Nov 01 2024
Time   : 02:23:23
Host   : "skynet-linux"
PID    : 33082
I/O    : uncollated
Case   : /home/humberto/casesXCALibre/BFS_3D_5mm_OF11
nProcs : 1
sigFpe : Enabling floating point exception trapping (FOAM_SIGFPE).
fileModificationChecking : Monitoring run-time modified files using timeStampMaster (fileModificationSkew 10)
allowSystemOperations : Allowing user-supplied system call operations

// * * * * * * * * * * * * * * * * * * * * * * * * * * * * * * * * * * * * * //
Create time

Create mesh for time = 0

Selecting solver incompressibleFluid
Selecting viscosity model constant
Selecting turbulence model type laminar
Selecting laminar stress model Stokes
No MRF models present


SIMPLE: Convergence criteria found
        p: tolerance 1e-07
        U: tolerance 1e-07
        "(k|epsilon|omega|f|v2)": tolerance 1e-07


SIMPLE: Operating solver in steady-state mode with 1 outer corrector
SIMPLE: Operating solver in SIMPLE mode



Starting time loop

Time = 1s

diagonalPBiCGStab:  Solving for Ux, Initial residual = 1, Final residual = 0.0793449, No Iterations 9
diagonalPBiCGStab:  Solving for Uy, Initial residual = 1, Final residual = 0.0995826, No Iterations 3
diagonalPBiCGStab:  Solving for Uz, Initial residual = 1, Final residual = 0.0757627, No Iterations 3
GAMG:  Solving for p, Initial residual = 1, Final residual = 0.0674384, No Iterations 12
time step continuity errors : sum local = 1.90229e-05, global = 1.38821e-06, cumulative = 1.38821e-06
ExecutionTime = 3.07268 s  ClockTime = 3 s

Time = 2s

diagonalPBiCGStab:  Solving for Ux, Initial residual = 0.877841, Final residual = 0.0872363, No Iterations 3
diagonalPBiCGStab:  Solving for Uy, Initial residual = 0.447448, Final residual = 0.0381445, No Iterations 5
diagonalPBiCGStab:  Solving for Uz, Initial residual = 0.379716, Final residual = 0.0283788, No Iterations 5
GAMG:  Solving for p, Initial residual = 0.213027, Final residual = 0.0169069, No Iterations 2
time step continuity errors : sum local = 0.00144602, global = -0.000294208, cumulative = -0.00029282
ExecutionTime = 4.17391 s  ClockTime = 4 s

Time = 3s

diagonalPBiCGStab:  Solving for Ux, Initial residual = 0.427029, Final residual = 0.0380116, No Iterations 4
diagonalPBiCGStab:  Solving for Uy, Initial residual = 0.297666, Final residual = 0.0246242, No Iterations 4
diagonalPBiCGStab:  Solving for Uz, Initial residual = 0.316594, Final residual = 0.0165654, No Iterations 5
GAMG:  Solving for p, Initial residual = 0.209474, Final residual = 0.0151778, No Iterations 4
time step continuity errors : sum local = 0.00106532, global = -0.000187774, cumulative = -0.000480593
ExecutionTime = 5.4178 s  ClockTime = 5 s

Time = 4s

diagonalPBiCGStab:  Solving for Ux, Initial residual = 0.290857, Final residual = 0.020498, No Iterations 5
diagonalPBiCGStab:  Solving for Uy, Initial residual = 0.424647, Final residual = 0.0376016, No Iterations 3
diagonalPBiCGStab:  Solving for Uz, Initial residual = 0.535682, Final residual = 0.0263993, No Iterations 4
GAMG:  Solving for p, Initial residual = 0.335108, Final residual = 0.0244369, No Iterations 4
time step continuity errors : sum local = 0.000966771, global = -0.000144412, cumulative = -0.000625005
ExecutionTime = 6.6193 s  ClockTime = 6 s

Time = 5s

diagonalPBiCGStab:  Solving for Ux, Initial residual = 0.563246, Final residual = 0.0476214, No Iterations 5
diagonalPBiCGStab:  Solving for Uy, Initial residual = 0.385763, Final residual = 0.0372786, No Iterations 5
diagonalPBiCGStab:  Solving for Uz, Initial residual = 0.354699, Final residual = 0.0220337, No Iterations 4
GAMG:  Solving for p, Initial residual = 0.317679, Final residual = 0.0167438, No Iterations 2
time step continuity errors : sum local = 0.00160872, global = -1.57918e-07, cumulative = -0.000625163
ExecutionTime = 7.74155 s  ClockTime = 7 s

Time = 6s

diagonalPBiCGStab:  Solving for Ux, Initial residual = 0.559517, Final residual = 0.0346736, No Iterations 5
diagonalPBiCGStab:  Solving for Uy, Initial residual = 0.35539, Final residual = 0.0262023, No Iterations 5
diagonalPBiCGStab:  Solving for Uz, Initial residual = 0.328086, Final residual = 0.0312488, No Iterations 4
GAMG:  Solving for p, Initial residual = 0.279432, Final residual = 0.0118044, No Iterations 4
time step continuity errors : sum local = 0.000781981, global = 0.000150822, cumulative = -0.000474341
ExecutionTime = 8.97509 s  ClockTime = 8 s

Time = 7s

diagonalPBiCGStab:  Solving for Ux, Initial residual = 0.3636, Final residual = 0.0268705, No Iterations 6
diagonalPBiCGStab:  Solving for Uy, Initial residual = 0.400878, Final residual = 0.0269105, No Iterations 5
diagonalPBiCGStab:  Solving for Uz, Initial residual = 0.493367, Final residual = 0.0379203, No Iterations 4
GAMG:  Solving for p, Initial residual = 0.479415, Final residual = 0.0352962, No Iterations 3
time step continuity errors : sum local = 0.000839748, global = 0.000117213, cumulative = -0.000357128
ExecutionTime = 10.1945 s  ClockTime = 10 s

Time = 8s

diagonalPBiCGStab:  Solving for Ux, Initial residual = 0.636136, Final residual = 0.0122811, No Iterations 6
diagonalPBiCGStab:  Solving for Uy, Initial residual = 0.339473, Final residual = 0.0257771, No Iterations 5
diagonalPBiCGStab:  Solving for Uz, Initial residual = 0.310653, Final residual = 0.0234519, No Iterations 5
GAMG:  Solving for p, Initial residual = 0.322491, Final residual = 0.0212422, No Iterations 2
time step continuity errors : sum local = 0.00112855, global = -0.000195645, cumulative = -0.000552773
ExecutionTime = 11.3702 s  ClockTime = 11 s

Time = 9s

diagonalPBiCGStab:  Solving for Ux, Initial residual = 0.64895, Final residual = 0.047648, No Iterations 3
diagonalPBiCGStab:  Solving for Uy, Initial residual = 0.280674, Final residual = 0.0201697, No Iterations 5
diagonalPBiCGStab:  Solving for Uz, Initial residual = 0.204551, Final residual = 0.0193943, No Iterations 4
GAMG:  Solving for p, Initial residual = 0.28872, Final residual = 0.00938315, No Iterations 4
time step continuity errors : sum local = 0.000574467, global = -0.000129039, cumulative = -0.000681812
ExecutionTime = 12.5753 s  ClockTime = 12 s

Time = 10s

diagonalPBiCGStab:  Solving for Ux, Initial residual = 0.301282, Final residual = 0.0199215, No Iterations 5
diagonalPBiCGStab:  Solving for Uy, Initial residual = 0.329397, Final residual = 0.0309614, No Iterations 4
diagonalPBiCGStab:  Solving for Uz, Initial residual = 0.399871, Final residual = 0.0323055, No Iterations 6
GAMG:  Solving for p, Initial residual = 0.527933, Final residual = 0.0244885, No Iterations 4
time step continuity errors : sum local = 0.000557004, global = -0.000117324, cumulative = -0.000799136
ExecutionTime = 13.8368 s  ClockTime = 13 s

Time = 11s

diagonalPBiCGStab:  Solving for Ux, Initial residual = 0.408452, Final residual = 0.0209336, No Iterations 4
diagonalPBiCGStab:  Solving for Uy, Initial residual = 0.310869, Final residual = 0.0274363, No Iterations 5
diagonalPBiCGStab:  Solving for Uz, Initial residual = 0.313362, Final residual = 0.0217392, No Iterations 5
GAMG:  Solving for p, Initial residual = 0.282554, Final residual = 0.0106196, No Iterations 3
time step continuity errors : sum local = 0.000570612, global = -5.32982e-05, cumulative = -0.000852435
ExecutionTime = 14.9883 s  ClockTime = 15 s

Time = 12s

diagonalPBiCGStab:  Solving for Ux, Initial residual = 0.391987, Final residual = 0.0320046, No Iterations 3
diagonalPBiCGStab:  Solving for Uy, Initial residual = 0.234193, Final residual = 0.0213649, No Iterations 6
diagonalPBiCGStab:  Solving for Uz, Initial residual = 0.184048, Final residual = 0.0143431, No Iterations 5
GAMG:  Solving for p, Initial residual = 0.286455, Final residual = 0.0222407, No Iterations 2
time step continuity errors : sum local = 0.00125685, global = 0.000296415, cumulative = -0.00055602
ExecutionTime = 16.1086 s  ClockTime = 16 s

Time = 13s

diagonalPBiCGStab:  Solving for Ux, Initial residual = 0.230912, Final residual = 0.00838839, No Iterations 5
diagonalPBiCGStab:  Solving for Uy, Initial residual = 0.247098, Final residual = 0.020035, No Iterations 5
diagonalPBiCGStab:  Solving for Uz, Initial residual = 0.256007, Final residual = 0.0184706, No Iterations 5
GAMG:  Solving for p, Initial residual = 0.324855, Final residual = 0.0224579, No Iterations 4
time step continuity errors : sum local = 0.000669307, global = 6.96633e-05, cumulative = -0.000486357
ExecutionTime = 17.3698 s  ClockTime = 17 s

Time = 14s

diagonalPBiCGStab:  Solving for Ux, Initial residual = 0.383507, Final residual = 0.0292198, No Iterations 4
diagonalPBiCGStab:  Solving for Uy, Initial residual = 0.359937, Final residual = 0.0159493, No Iterations 6
diagonalPBiCGStab:  Solving for Uz, Initial residual = 0.385341, Final residual = 0.026659, No Iterations 5
GAMG:  Solving for p, Initial residual = 0.29394, Final residual = 0.0186908, No Iterations 3
time step continuity errors : sum local = 0.000735891, global = 8.90663e-05, cumulative = -0.00039729
ExecutionTime = 18.5798 s  ClockTime = 18 s

Time = 15s

diagonalPBiCGStab:  Solving for Ux, Initial residual = 0.62743, Final residual = 0.0459179, No Iterations 3
diagonalPBiCGStab:  Solving for Uy, Initial residual = 0.262685, Final residual = 0.0211745, No Iterations 5
diagonalPBiCGStab:  Solving for Uz, Initial residual = 0.215912, Final residual = 0.0170664, No Iterations 5
GAMG:  Solving for p, Initial residual = 0.300701, Final residual = 0.0132954, No Iterations 3
time step continuity errors : sum local = 0.000642695, global = 3.86825e-05, cumulative = -0.000358608
ExecutionTime = 19.7247 s  ClockTime = 19 s

Time = 16s

diagonalPBiCGStab:  Solving for Ux, Initial residual = 0.608497, Final residual = 0.0362164, No Iterations 4
diagonalPBiCGStab:  Solving for Uy, Initial residual = 0.226921, Final residual = 0.0093158, No Iterations 6
diagonalPBiCGStab:  Solving for Uz, Initial residual = 0.25221, Final residual = 0.0251256, No Iterations 4
GAMG:  Solving for p, Initial residual = 0.36659, Final residual = 0.0282738, No Iterations 3
time step continuity errors : sum local = 0.000993194, global = 6.39828e-05, cumulative = -0.000294625
ExecutionTime = 20.9086 s  ClockTime = 20 s

Time = 17s

diagonalPBiCGStab:  Solving for Ux, Initial residual = 0.288717, Final residual = 0.0261561, No Iterations 4
diagonalPBiCGStab:  Solving for Uy, Initial residual = 0.300526, Final residual = 0.0135095, No Iterations 6
diagonalPBiCGStab:  Solving for Uz, Initial residual = 0.353245, Final residual = 0.0256633, No Iterations 4
GAMG:  Solving for p, Initial residual = 0.380001, Final residual = 0.0337152, No Iterations 3
time step continuity errors : sum local = 0.000896455, global = -0.00011493, cumulative = -0.000409555
ExecutionTime = 22.1143 s  ClockTime = 22 s

Time = 18s

diagonalPBiCGStab:  Solving for Ux, Initial residual = 0.302948, Final residual = 0.0241575, No Iterations 3
diagonalPBiCGStab:  Solving for Uy, Initial residual = 0.262242, Final residual = 0.0216901, No Iterations 5
diagonalPBiCGStab:  Solving for Uz, Initial residual = 0.231406, Final residual = 0.0215037, No Iterations 4
GAMG:  Solving for p, Initial residual = 0.315228, Final residual = 0.0167823, No Iterations 3
time step continuity errors : sum local = 0.000697454, global = -3.62098e-05, cumulative = -0.000445765
ExecutionTime = 23.2554 s  ClockTime = 23 s

Time = 19s

diagonalPBiCGStab:  Solving for Ux, Initial residual = 0.224564, Final residual = 0.017191, No Iterations 3
diagonalPBiCGStab:  Solving for Uy, Initial residual = 0.207535, Final residual = 0.0139589, No Iterations 5
diagonalPBiCGStab:  Solving for Uz, Initial residual = 0.213107, Final residual = 0.0174447, No Iterations 5
GAMG:  Solving for p, Initial residual = 0.324745, Final residual = 0.029794, No Iterations 3
time step continuity errors : sum local = 0.000985899, global = -0.000100055, cumulative = -0.00054582
ExecutionTime = 24.4029 s  ClockTime = 24 s

Time = 20s

diagonalPBiCGStab:  Solving for Ux, Initial residual = 0.203459, Final residual = 0.0198097, No Iterations 4
diagonalPBiCGStab:  Solving for Uy, Initial residual = 0.239324, Final residual = 0.0182129, No Iterations 5
diagonalPBiCGStab:  Solving for Uz, Initial residual = 0.260445, Final residual = 0.0235707, No Iterations 4
GAMG:  Solving for p, Initial residual = 0.69987, Final residual = 0.0426294, No Iterations 3
time step continuity errors : sum local = 0.000522038, global = 0.000124726, cumulative = -0.000421094
ExecutionTime = 25.5691 s  ClockTime = 25 s

Time = 21s

diagonalPBiCGStab:  Solving for Ux, Initial residual = 0.281802, Final residual = 0.0264123, No Iterations 3
diagonalPBiCGStab:  Solving for Uy, Initial residual = 0.27001, Final residual = 0.0196852, No Iterations 5
diagonalPBiCGStab:  Solving for Uz, Initial residual = 0.254878, Final residual = 0.0252903, No Iterations 4
GAMG:  Solving for p, Initial residual = 0.337493, Final residual = 0.0280941, No Iterations 3
time step continuity errors : sum local = 0.000722384, global = 6.68555e-05, cumulative = -0.000354238
ExecutionTime = 26.6963 s  ClockTime = 26 s

Time = 22s

diagonalPBiCGStab:  Solving for Ux, Initial residual = 0.498532, Final residual = 0.0443723, No Iterations 3
diagonalPBiCGStab:  Solving for Uy, Initial residual = 0.197658, Final residual = 0.0164759, No Iterations 5
diagonalPBiCGStab:  Solving for Uz, Initial residual = 0.213106, Final residual = 0.0180514, No Iterations 5
GAMG:  Solving for p, Initial residual = 0.28892, Final residual = 0.0201565, No Iterations 3
time step continuity errors : sum local = 0.000696591, global = 4.65778e-05, cumulative = -0.000307661
ExecutionTime = 27.8414 s  ClockTime = 27 s

Time = 23s

diagonalPBiCGStab:  Solving for Ux, Initial residual = 0.537284, Final residual = 0.0278267, No Iterations 4
diagonalPBiCGStab:  Solving for Uy, Initial residual = 0.183273, Final residual = 0.0162833, No Iterations 5
diagonalPBiCGStab:  Solving for Uz, Initial residual = 0.222622, Final residual = 0.02115, No Iterations 4
GAMG:  Solving for p, Initial residual = 0.359988, Final residual = 0.0145403, No Iterations 3
time step continuity errors : sum local = 0.000398558, global = -8.9429e-05, cumulative = -0.00039709
ExecutionTime = 29.0026 s  ClockTime = 29 s

Time = 24s

diagonalPBiCGStab:  Solving for Ux, Initial residual = 0.300403, Final residual = 0.0290984, No Iterations 3
diagonalPBiCGStab:  Solving for Uy, Initial residual = 0.237841, Final residual = 0.0179449, No Iterations 5
diagonalPBiCGStab:  Solving for Uz, Initial residual = 0.254708, Final residual = 0.0191543, No Iterations 5
GAMG:  Solving for p, Initial residual = 0.580676, Final residual = 0.0548133, No Iterations 3
time step continuity errors : sum local = 0.000816528, global = -0.000109019, cumulative = -0.000506109
ExecutionTime = 30.1584 s  ClockTime = 30 s

Time = 25s

diagonalPBiCGStab:  Solving for Ux, Initial residual = 0.21187, Final residual = 0.0179869, No Iterations 3
diagonalPBiCGStab:  Solving for Uy, Initial residual = 0.194616, Final residual = 0.0160068, No Iterations 5
diagonalPBiCGStab:  Solving for Uz, Initial residual = 0.216314, Final residual = 0.0200504, No Iterations 4
GAMG:  Solving for p, Initial residual = 0.350775, Final residual = 0.0275655, No Iterations 3
time step continuity errors : sum local = 0.000703668, global = -5.82173e-05, cumulative = -0.000564326
ExecutionTime = 31.3051 s  ClockTime = 31 s

Time = 26s

diagonalPBiCGStab:  Solving for Ux, Initial residual = 0.213938, Final residual = 0.0165613, No Iterations 3
diagonalPBiCGStab:  Solving for Uy, Initial residual = 0.156799, Final residual = 0.0115669, No Iterations 5
diagonalPBiCGStab:  Solving for Uz, Initial residual = 0.19885, Final residual = 0.014746, No Iterations 5
GAMG:  Solving for p, Initial residual = 0.326584, Final residual = 0.0106491, No Iterations 3
time step continuity errors : sum local = 0.000280369, global = 5.272e-05, cumulative = -0.000511606
ExecutionTime = 32.4674 s  ClockTime = 32 s

Time = 27s

diagonalPBiCGStab:  Solving for Ux, Initial residual = 0.227969, Final residual = 0.01865, No Iterations 4
diagonalPBiCGStab:  Solving for Uy, Initial residual = 0.191842, Final residual = 0.015505, No Iterations 5
diagonalPBiCGStab:  Solving for Uz, Initial residual = 0.192166, Final residual = 0.014579, No Iterations 5
GAMG:  Solving for p, Initial residual = 0.490697, Final residual = 0.0243116, No Iterations 3
time step continuity errors : sum local = 0.000386161, global = 0.000103642, cumulative = -0.000407964
ExecutionTime = 33.6527 s  ClockTime = 33 s

Time = 28s

diagonalPBiCGStab:  Solving for Ux, Initial residual = 0.225144, Final residual = 0.0176757, No Iterations 4
diagonalPBiCGStab:  Solving for Uy, Initial residual = 0.18334, Final residual = 0.015828, No Iterations 5
diagonalPBiCGStab:  Solving for Uz, Initial residual = 0.194096, Final residual = 0.013706, No Iterations 5
GAMG:  Solving for p, Initial residual = 0.445328, Final residual = 0.0439581, No Iterations 3
time step continuity errors : sum local = 0.000649661, global = 0.000108445, cumulative = -0.000299519
ExecutionTime = 34.824 s  ClockTime = 34 s

Time = 29s

diagonalPBiCGStab:  Solving for Ux, Initial residual = 0.370437, Final residual = 0.0181613, No Iterations 4
diagonalPBiCGStab:  Solving for Uy, Initial residual = 0.157038, Final residual = 0.0133831, No Iterations 5
diagonalPBiCGStab:  Solving for Uz, Initial residual = 0.205836, Final residual = 0.0197118, No Iterations 4
GAMG:  Solving for p, Initial residual = 0.286246, Final residual = 0.021093, No Iterations 3
time step continuity errors : sum local = 0.000503339, global = -3.8968e-06, cumulative = -0.000303416
ExecutionTime = 35.9851 s  ClockTime = 36 s

Time = 30s

diagonalPBiCGStab:  Solving for Ux, Initial residual = 0.52368, Final residual = 0.0475225, No Iterations 3
diagonalPBiCGStab:  Solving for Uy, Initial residual = 0.174561, Final residual = 0.0149892, No Iterations 5
diagonalPBiCGStab:  Solving for Uz, Initial residual = 0.190047, Final residual = 0.0189465, No Iterations 4
GAMG:  Solving for p, Initial residual = 0.318581, Final residual = 0.0103987, No Iterations 3
time step continuity errors : sum local = 0.000272982, global = -7.96408e-05, cumulative = -0.000383057
ExecutionTime = 37.1201 s  ClockTime = 37 s

Time = 31s

diagonalPBiCGStab:  Solving for Ux, Initial residual = 0.314625, Final residual = 0.0208755, No Iterations 4
diagonalPBiCGStab:  Solving for Uy, Initial residual = 0.16063, Final residual = 0.0157969, No Iterations 4
diagonalPBiCGStab:  Solving for Uz, Initial residual = 0.174071, Final residual = 0.014172, No Iterations 5
GAMG:  Solving for p, Initial residual = 0.459419, Final residual = 0.0344602, No Iterations 3
time step continuity errors : sum local = 0.000529993, global = -0.000115128, cumulative = -0.000498185
ExecutionTime = 38.2804 s  ClockTime = 38 s

Time = 32s

diagonalPBiCGStab:  Solving for Ux, Initial residual = 0.16714, Final residual = 0.0139626, No Iterations 4
diagonalPBiCGStab:  Solving for Uy, Initial residual = 0.143357, Final residual = 0.0118121, No Iterations 5
diagonalPBiCGStab:  Solving for Uz, Initial residual = 0.209826, Final residual = 0.0185758, No Iterations 5
GAMG:  Solving for p, Initial residual = 0.360197, Final residual = 0.0277083, No Iterations 3
time step continuity errors : sum local = 0.000469424, global = -5.80357e-05, cumulative = -0.000556221
ExecutionTime = 39.4621 s  ClockTime = 39 s

Time = 33s

diagonalPBiCGStab:  Solving for Ux, Initial residual = 0.264557, Final residual = 0.0178466, No Iterations 3
diagonalPBiCGStab:  Solving for Uy, Initial residual = 0.141195, Final residual = 0.0130984, No Iterations 5
diagonalPBiCGStab:  Solving for Uz, Initial residual = 0.16892, Final residual = 0.0164138, No Iterations 4
GAMG:  Solving for p, Initial residual = 0.295455, Final residual = 0.0243091, No Iterations 2
time step continuity errors : sum local = 0.000617246, global = -4.51071e-05, cumulative = -0.000601328
ExecutionTime = 40.5386 s  ClockTime = 40 s

Time = 34s

diagonalPBiCGStab:  Solving for Ux, Initial residual = 0.235095, Final residual = 0.0223367, No Iterations 3
diagonalPBiCGStab:  Solving for Uy, Initial residual = 0.128788, Final residual = 0.00404718, No Iterations 7
diagonalPBiCGStab:  Solving for Uz, Initial residual = 0.131461, Final residual = 0.00560916, No Iterations 6
GAMG:  Solving for p, Initial residual = 0.332027, Final residual = 0.0163545, No Iterations 3
time step continuity errors : sum local = 0.000320917, global = 8.17947e-05, cumulative = -0.000519533
ExecutionTime = 41.7333 s  ClockTime = 41 s

Time = 35s

diagonalPBiCGStab:  Solving for Ux, Initial residual = 0.181319, Final residual = 0.0155751, No Iterations 4
diagonalPBiCGStab:  Solving for Uy, Initial residual = 0.144596, Final residual = 0.0119053, No Iterations 5
diagonalPBiCGStab:  Solving for Uz, Initial residual = 0.185934, Final residual = 0.0134128, No Iterations 5
GAMG:  Solving for p, Initial residual = 0.395963, Final residual = 0.0351209, No Iterations 3
time step continuity errors : sum local = 0.000423334, global = 9.39876e-05, cumulative = -0.000425545
ExecutionTime = 42.949 s  ClockTime = 42 s

Time = 36s

diagonalPBiCGStab:  Solving for Ux, Initial residual = 0.380826, Final residual = 0.0352204, No Iterations 3
diagonalPBiCGStab:  Solving for Uy, Initial residual = 0.135863, Final residual = 0.0108368, No Iterations 5
diagonalPBiCGStab:  Solving for Uz, Initial residual = 0.171802, Final residual = 0.0133763, No Iterations 5
GAMG:  Solving for p, Initial residual = 0.260969, Final residual = 0.0104881, No Iterations 3
time step continuity errors : sum local = 0.00023889, global = 1.954e-05, cumulative = -0.000406005
ExecutionTime = 44.0765 s  ClockTime = 44 s

Time = 37s

diagonalPBiCGStab:  Solving for Ux, Initial residual = 0.503376, Final residual = 0.0361674, No Iterations 3
diagonalPBiCGStab:  Solving for Uy, Initial residual = 0.123627, Final residual = 0.0105102, No Iterations 5
diagonalPBiCGStab:  Solving for Uz, Initial residual = 0.134425, Final residual = 0.00651302, No Iterations 6
GAMG:  Solving for p, Initial residual = 0.262324, Final residual = 0.0085343, No Iterations 3
time step continuity errors : sum local = 0.000219955, global = -5.58961e-05, cumulative = -0.000461901
ExecutionTime = 45.2476 s  ClockTime = 45 s

Time = 38s

diagonalPBiCGStab:  Solving for Ux, Initial residual = 0.23471, Final residual = 0.0219139, No Iterations 3
diagonalPBiCGStab:  Solving for Uy, Initial residual = 0.116653, Final residual = 0.0101114, No Iterations 6
diagonalPBiCGStab:  Solving for Uz, Initial residual = 0.150956, Final residual = 0.0119997, No Iterations 5
GAMG:  Solving for p, Initial residual = 0.376888, Final residual = 0.0268988, No Iterations 3
time step continuity errors : sum local = 0.000358703, global = -7.74544e-05, cumulative = -0.000539356
ExecutionTime = 46.4317 s  ClockTime = 46 s

Time = 39s

diagonalPBiCGStab:  Solving for Ux, Initial residual = 0.158957, Final residual = 0.0120092, No Iterations 4
diagonalPBiCGStab:  Solving for Uy, Initial residual = 0.116019, Final residual = 0.00978876, No Iterations 5
diagonalPBiCGStab:  Solving for Uz, Initial residual = 0.171335, Final residual = 0.0167671, No Iterations 4
GAMG:  Solving for p, Initial residual = 0.312683, Final residual = 0.0186592, No Iterations 3
time step continuity errors : sum local = 0.00029955, global = -4.17206e-05, cumulative = -0.000581076
ExecutionTime = 47.6061 s  ClockTime = 47 s

Time = 40s

diagonalPBiCGStab:  Solving for Ux, Initial residual = 0.238596, Final residual = 0.0181557, No Iterations 3
diagonalPBiCGStab:  Solving for Uy, Initial residual = 0.100165, Final residual = 0.00568746, No Iterations 6
diagonalPBiCGStab:  Solving for Uz, Initial residual = 0.123379, Final residual = 0.012055, No Iterations 4
GAMG:  Solving for p, Initial residual = 0.270941, Final residual = 0.0255999, No Iterations 2
time step continuity errors : sum local = 0.000567698, global = -3.59434e-05, cumulative = -0.00061702
ExecutionTime = 48.7 s  ClockTime = 48 s

Time = 41s

diagonalPBiCGStab:  Solving for Ux, Initial residual = 0.187461, Final residual = 0.0108611, No Iterations 4
diagonalPBiCGStab:  Solving for Uy, Initial residual = 0.0979824, Final residual = 0.00647961, No Iterations 6
diagonalPBiCGStab:  Solving for Uz, Initial residual = 0.115565, Final residual = 0.0101151, No Iterations 5
GAMG:  Solving for p, Initial residual = 0.348167, Final residual = 0.0192634, No Iterations 3
time step continuity errors : sum local = 0.00025358, global = 6.12117e-05, cumulative = -0.000555808
ExecutionTime = 49.8938 s  ClockTime = 49 s

Time = 42s

diagonalPBiCGStab:  Solving for Ux, Initial residual = 0.190319, Final residual = 0.0175173, No Iterations 3
diagonalPBiCGStab:  Solving for Uy, Initial residual = 0.110775, Final residual = 0.00491358, No Iterations 6
diagonalPBiCGStab:  Solving for Uz, Initial residual = 0.147861, Final residual = 0.010376, No Iterations 5
GAMG:  Solving for p, Initial residual = 0.278585, Final residual = 0.0223669, No Iterations 3
time step continuity errors : sum local = 0.000307057, global = 7.01497e-05, cumulative = -0.000485658
ExecutionTime = 51.0764 s  ClockTime = 51 s

Time = 43s

diagonalPBiCGStab:  Solving for Ux, Initial residual = 0.333859, Final residual = 0.02784, No Iterations 3
diagonalPBiCGStab:  Solving for Uy, Initial residual = 0.0944238, Final residual = 0.0083698, No Iterations 5
diagonalPBiCGStab:  Solving for Uz, Initial residual = 0.119643, Final residual = 0.0105437, No Iterations 5
GAMG:  Solving for p, Initial residual = 0.224, Final residual = 0.00714646, No Iterations 3
time step continuity errors : sum local = 0.000151207, global = -2.80464e-05, cumulative = -0.000513705
ExecutionTime = 52.2358 s  ClockTime = 52 s

Time = 44s

diagonalPBiCGStab:  Solving for Ux, Initial residual = 0.331953, Final residual = 0.0252406, No Iterations 3
diagonalPBiCGStab:  Solving for Uy, Initial residual = 0.0868668, Final residual = 0.00808709, No Iterations 4
diagonalPBiCGStab:  Solving for Uz, Initial residual = 0.103223, Final residual = 0.0100557, No Iterations 4
GAMG:  Solving for p, Initial residual = 0.219123, Final residual = 0.00847854, No Iterations 3
time step continuity errors : sum local = 0.00019054, global = -4.09293e-05, cumulative = -0.000554634
ExecutionTime = 53.3602 s  ClockTime = 53 s

Time = 45s

diagonalPBiCGStab:  Solving for Ux, Initial residual = 0.129234, Final residual = 0.00575749, No Iterations 5
diagonalPBiCGStab:  Solving for Uy, Initial residual = 0.0890423, Final residual = 0.00871345, No Iterations 6
diagonalPBiCGStab:  Solving for Uz, Initial residual = 0.121635, Final residual = 0.00473295, No Iterations 6
GAMG:  Solving for p, Initial residual = 0.453863, Final residual = 0.030746, No Iterations 3
time step continuity errors : sum local = 0.000253754, global = -4.91955e-05, cumulative = -0.00060383
ExecutionTime = 54.5987 s  ClockTime = 54 s

Time = 46s

diagonalPBiCGStab:  Solving for Ux, Initial residual = 0.128652, Final residual = 0.0120411, No Iterations 3
diagonalPBiCGStab:  Solving for Uy, Initial residual = 0.0831472, Final residual = 0.00624203, No Iterations 5
diagonalPBiCGStab:  Solving for Uz, Initial residual = 0.117772, Final residual = 0.0116209, No Iterations 4
GAMG:  Solving for p, Initial residual = 0.270621, Final residual = 0.0113409, No Iterations 3
time step continuity errors : sum local = 0.000177031, global = -1.75626e-05, cumulative = -0.000621392
ExecutionTime = 55.7367 s  ClockTime = 55 s

Time = 47s

diagonalPBiCGStab:  Solving for Ux, Initial residual = 0.164022, Final residual = 0.0137786, No Iterations 3
diagonalPBiCGStab:  Solving for Uy, Initial residual = 0.0702481, Final residual = 0.00686478, No Iterations 4
diagonalPBiCGStab:  Solving for Uz, Initial residual = 0.0864034, Final residual = 0.00851398, No Iterations 4
GAMG:  Solving for p, Initial residual = 0.26485, Final residual = 0.00761858, No Iterations 3
time step continuity errors : sum local = 0.000126117, global = 2.44554e-05, cumulative = -0.000596937
ExecutionTime = 56.8384 s  ClockTime = 56 s

Time = 48s

diagonalPBiCGStab:  Solving for Ux, Initial residual = 0.124985, Final residual = 0.0118895, No Iterations 4
diagonalPBiCGStab:  Solving for Uy, Initial residual = 0.076954, Final residual = 0.00611171, No Iterations 5
diagonalPBiCGStab:  Solving for Uz, Initial residual = 0.0932193, Final residual = 0.00754916, No Iterations 5
GAMG:  Solving for p, Initial residual = 0.559208, Final residual = 0.034319, No Iterations 3
time step continuity errors : sum local = 0.000197381, global = 4.59035e-05, cumulative = -0.000551033
ExecutionTime = 58.0113 s  ClockTime = 58 s

Time = 49s

diagonalPBiCGStab:  Solving for Ux, Initial residual = 0.159898, Final residual = 0.0135468, No Iterations 3
diagonalPBiCGStab:  Solving for Uy, Initial residual = 0.0740305, Final residual = 0.0062261, No Iterations 5
diagonalPBiCGStab:  Solving for Uz, Initial residual = 0.0963225, Final residual = 0.00718572, No Iterations 5
GAMG:  Solving for p, Initial residual = 0.209072, Final residual = 0.0136034, No Iterations 3
time step continuity errors : sum local = 0.000206311, global = 3.06392e-05, cumulative = -0.000520394
ExecutionTime = 59.1689 s  ClockTime = 59 s

Time = 50s

diagonalPBiCGStab:  Solving for Ux, Initial residual = 0.213061, Final residual = 0.0196171, No Iterations 3
diagonalPBiCGStab:  Solving for Uy, Initial residual = 0.0677701, Final residual = 0.0067129, No Iterations 4
diagonalPBiCGStab:  Solving for Uz, Initial residual = 0.0818604, Final residual = 0.0071589, No Iterations 6
GAMG:  Solving for p, Initial residual = 0.188378, Final residual = 0.00506973, No Iterations 3
time step continuity errors : sum local = 0.000103391, global = -2.01114e-05, cumulative = -0.000540506
ExecutionTime = 60.3447 s  ClockTime = 60 s

Time = 51s

diagonalPBiCGStab:  Solving for Ux, Initial residual = 0.146757, Final residual = 0.0117721, No Iterations 3
diagonalPBiCGStab:  Solving for Uy, Initial residual = 0.0656752, Final residual = 0.00619941, No Iterations 4
diagonalPBiCGStab:  Solving for Uz, Initial residual = 0.0786027, Final residual = 0.00772572, No Iterations 4
GAMG:  Solving for p, Initial residual = 0.218202, Final residual = 0.0106309, No Iterations 3
time step continuity errors : sum local = 0.000165289, global = -4.13641e-05, cumulative = -0.00058187
ExecutionTime = 61.4795 s  ClockTime = 61 s

Time = 52s

diagonalPBiCGStab:  Solving for Ux, Initial residual = 0.0650185, Final residual = 0.00363359, No Iterations 5
diagonalPBiCGStab:  Solving for Uy, Initial residual = 0.062454, Final residual = 0.00562774, No Iterations 5
diagonalPBiCGStab:  Solving for Uz, Initial residual = 0.0822066, Final residual = 0.00662233, No Iterations 5
GAMG:  Solving for p, Initial residual = 0.404389, Final residual = 0.025348, No Iterations 3
time step continuity errors : sum local = 0.00018781, global = -3.80196e-05, cumulative = -0.000619889
ExecutionTime = 62.6902 s  ClockTime = 62 s

Time = 53s

diagonalPBiCGStab:  Solving for Ux, Initial residual = 0.0857661, Final residual = 0.00789755, No Iterations 3
diagonalPBiCGStab:  Solving for Uy, Initial residual = 0.0561145, Final residual = 0.00510093, No Iterations 5
diagonalPBiCGStab:  Solving for Uz, Initial residual = 0.0721571, Final residual = 0.00717788, No Iterations 4
GAMG:  Solving for p, Initial residual = 0.237624, Final residual = 0.0224961, No Iterations 2
time step continuity errors : sum local = 0.000315775, global = 3.22592e-06, cumulative = -0.000616663
ExecutionTime = 63.7807 s  ClockTime = 63 s

Time = 54s

diagonalPBiCGStab:  Solving for Ux, Initial residual = 0.0944742, Final residual = 0.00691394, No Iterations 3
diagonalPBiCGStab:  Solving for Uy, Initial residual = 0.0510848, Final residual = 0.00409689, No Iterations 5
diagonalPBiCGStab:  Solving for Uz, Initial residual = 0.0594649, Final residual = 0.00562196, No Iterations 4
GAMG:  Solving for p, Initial residual = 0.256327, Final residual = 0.00935121, No Iterations 3
time step continuity errors : sum local = 0.000111167, global = 2.44872e-05, cumulative = -0.000592176
ExecutionTime = 64.9285 s  ClockTime = 64 s

Time = 55s

diagonalPBiCGStab:  Solving for Ux, Initial residual = 0.0722817, Final residual = 0.00209312, No Iterations 6
diagonalPBiCGStab:  Solving for Uy, Initial residual = 0.0536663, Final residual = 0.00510552, No Iterations 5
diagonalPBiCGStab:  Solving for Uz, Initial residual = 0.0646598, Final residual = 0.00421812, No Iterations 5
GAMG:  Solving for p, Initial residual = 0.307237, Final residual = 0.0191172, No Iterations 3
time step continuity errors : sum local = 0.000146218, global = 2.98498e-05, cumulative = -0.000562326
ExecutionTime = 66.16 s  ClockTime = 66 s

Time = 56s

diagonalPBiCGStab:  Solving for Ux, Initial residual = 0.104736, Final residual = 0.00781269, No Iterations 3
diagonalPBiCGStab:  Solving for Uy, Initial residual = 0.0531853, Final residual = 0.00475029, No Iterations 5
diagonalPBiCGStab:  Solving for Uz, Initial residual = 0.0640547, Final residual = 0.00637024, No Iterations 5
GAMG:  Solving for p, Initial residual = 0.170505, Final residual = 0.00786467, No Iterations 3
time step continuity errors : sum local = 0.000124831, global = -7.42013e-06, cumulative = -0.000569746
ExecutionTime = 67.3338 s  ClockTime = 67 s

Time = 57s

diagonalPBiCGStab:  Solving for Ux, Initial residual = 0.120237, Final residual = 0.0110624, No Iterations 3
diagonalPBiCGStab:  Solving for Uy, Initial residual = 0.0513588, Final residual = 0.00485411, No Iterations 4
diagonalPBiCGStab:  Solving for Uz, Initial residual = 0.0576271, Final residual = 0.00463384, No Iterations 5
GAMG:  Solving for p, Initial residual = 0.177646, Final residual = 0.0051064, No Iterations 3
time step continuity errors : sum local = 8.72129e-05, global = -1.58604e-05, cumulative = -0.000585607
ExecutionTime = 68.482 s  ClockTime = 68 s

Time = 58s

diagonalPBiCGStab:  Solving for Ux, Initial residual = 0.0642173, Final residual = 0.00500871, No Iterations 4
diagonalPBiCGStab:  Solving for Uy, Initial residual = 0.0498002, Final residual = 0.0032251, No Iterations 6
diagonalPBiCGStab:  Solving for Uz, Initial residual = 0.0565776, Final residual = 0.00527189, No Iterations 4
GAMG:  Solving for p, Initial residual = 0.283369, Final residual = 0.0138974, No Iterations 3
time step continuity errors : sum local = 0.000121669, global = -1.90905e-05, cumulative = -0.000604697
ExecutionTime = 69.6754 s  ClockTime = 69 s

Time = 59s

diagonalPBiCGStab:  Solving for Ux, Initial residual = 0.0477497, Final residual = 0.00419126, No Iterations 4
diagonalPBiCGStab:  Solving for Uy, Initial residual = 0.0494745, Final residual = 0.00388556, No Iterations 6
diagonalPBiCGStab:  Solving for Uz, Initial residual = 0.0597946, Final residual = 0.00579931, No Iterations 4
GAMG:  Solving for p, Initial residual = 0.275171, Final residual = 0.0102564, No Iterations 3
time step continuity errors : sum local = 9.74495e-05, global = 1.52362e-05, cumulative = -0.000589461
ExecutionTime = 70.8747 s  ClockTime = 70 s

Time = 60s

diagonalPBiCGStab:  Solving for Ux, Initial residual = 0.0699686, Final residual = 0.00525885, No Iterations 3
diagonalPBiCGStab:  Solving for Uy, Initial residual = 0.0436602, Final residual = 0.00365618, No Iterations 5
diagonalPBiCGStab:  Solving for Uz, Initial residual = 0.0508998, Final residual = 0.00469106, No Iterations 4
GAMG:  Solving for p, Initial residual = 0.252266, Final residual = 0.0245436, No Iterations 2
time step continuity errors : sum local = 0.000272137, global = 4.6287e-06, cumulative = -0.000584832
ExecutionTime = 71.9691 s  ClockTime = 71 s

Time = 61s

diagonalPBiCGStab:  Solving for Ux, Initial residual = 0.0532453, Final residual = 0.00414541, No Iterations 4
diagonalPBiCGStab:  Solving for Uy, Initial residual = 0.0421482, Final residual = 0.00392095, No Iterations 5
diagonalPBiCGStab:  Solving for Uz, Initial residual = 0.0475644, Final residual = 0.004534, No Iterations 4
GAMG:  Solving for p, Initial residual = 0.353327, Final residual = 0.0199413, No Iterations 3
time step continuity errors : sum local = 0.000125665, global = -1.51977e-05, cumulative = -0.00060003
ExecutionTime = 73.126 s  ClockTime = 73 s

Time = 62s

diagonalPBiCGStab:  Solving for Ux, Initial residual = 0.055085, Final residual = 0.00433466, No Iterations 4
diagonalPBiCGStab:  Solving for Uy, Initial residual = 0.0452133, Final residual = 0.00356241, No Iterations 5
diagonalPBiCGStab:  Solving for Uz, Initial residual = 0.0494681, Final residual = 0.00477039, No Iterations 4
GAMG:  Solving for p, Initial residual = 0.236806, Final residual = 0.00770176, No Iterations 3
time step continuity errors : sum local = 6.90998e-05, global = 8.62592e-06, cumulative = -0.000591404
ExecutionTime = 74.2872 s  ClockTime = 74 s

Time = 63s

diagonalPBiCGStab:  Solving for Ux, Initial residual = 0.0668347, Final residual = 0.00498012, No Iterations 3
diagonalPBiCGStab:  Solving for Uy, Initial residual = 0.0428693, Final residual = 0.00332186, No Iterations 5
diagonalPBiCGStab:  Solving for Uz, Initial residual = 0.0436452, Final residual = 0.00399013, No Iterations 4
GAMG:  Solving for p, Initial residual = 0.211581, Final residual = 0.013925, No Iterations 2
time step continuity errors : sum local = 0.000155103, global = -3.68692e-05, cumulative = -0.000628273
ExecutionTime = 75.3796 s  ClockTime = 75 s

Time = 64s

diagonalPBiCGStab:  Solving for Ux, Initial residual = 0.0499425, Final residual = 0.00343072, No Iterations 4
diagonalPBiCGStab:  Solving for Uy, Initial residual = 0.0408622, Final residual = 0.00326672, No Iterations 5
diagonalPBiCGStab:  Solving for Uz, Initial residual = 0.0409997, Final residual = 0.0036884, No Iterations 4
GAMG:  Solving for p, Initial residual = 0.24767, Final residual = 0.0213194, No Iterations 2
time step continuity errors : sum local = 0.000183345, global = -2.99601e-05, cumulative = -0.000658233
ExecutionTime = 76.4741 s  ClockTime = 76 s

Time = 65s

diagonalPBiCGStab:  Solving for Ux, Initial residual = 0.0277761, Final residual = 0.00219625, No Iterations 4
diagonalPBiCGStab:  Solving for Uy, Initial residual = 0.039813, Final residual = 0.00342089, No Iterations 5
diagonalPBiCGStab:  Solving for Uz, Initial residual = 0.0422574, Final residual = 0.00381711, No Iterations 4
GAMG:  Solving for p, Initial residual = 0.390607, Final residual = 0.0365994, No Iterations 2
time step continuity errors : sum local = 0.000185883, global = -2.01275e-05, cumulative = -0.000678361
ExecutionTime = 77.5815 s  ClockTime = 77 s

Time = 66s

diagonalPBiCGStab:  Solving for Ux, Initial residual = 0.0358902, Final residual = 0.00299934, No Iterations 4
diagonalPBiCGStab:  Solving for Uy, Initial residual = 0.0373675, Final residual = 0.00349805, No Iterations 4
diagonalPBiCGStab:  Solving for Uz, Initial residual = 0.041448, Final residual = 0.00378381, No Iterations 4
GAMG:  Solving for p, Initial residual = 0.272351, Final residual = 0.020255, No Iterations 2
time step continuity errors : sum local = 0.000161139, global = -1.53834e-05, cumulative = -0.000693744
ExecutionTime = 78.6738 s  ClockTime = 78 s

Time = 67s

diagonalPBiCGStab:  Solving for Ux, Initial residual = 0.0450191, Final residual = 0.00388982, No Iterations 3
diagonalPBiCGStab:  Solving for Uy, Initial residual = 0.0359472, Final residual = 0.00339971, No Iterations 4
diagonalPBiCGStab:  Solving for Uz, Initial residual = 0.0392316, Final residual = 0.00333456, No Iterations 4
GAMG:  Solving for p, Initial residual = 0.265415, Final residual = 0.0211628, No Iterations 2
time step continuity errors : sum local = 0.00017324, global = -1.63252e-05, cumulative = -0.00071007
ExecutionTime = 79.7255 s  ClockTime = 79 s

Time = 68s

diagonalPBiCGStab:  Solving for Ux, Initial residual = 0.0422938, Final residual = 0.00373689, No Iterations 3
diagonalPBiCGStab:  Solving for Uy, Initial residual = 0.0392864, Final residual = 0.00299943, No Iterations 5
diagonalPBiCGStab:  Solving for Uz, Initial residual = 0.0389448, Final residual = 0.00344754, No Iterations 4
GAMG:  Solving for p, Initial residual = 0.297839, Final residual = 0.0295749, No Iterations 2
time step continuity errors : sum local = 0.00019648, global = -1.99365e-05, cumulative = -0.000730006
ExecutionTime = 80.7948 s  ClockTime = 80 s

Time = 69s

diagonalPBiCGStab:  Solving for Ux, Initial residual = 0.0334254, Final residual = 0.00298038, No Iterations 4
diagonalPBiCGStab:  Solving for Uy, Initial residual = 0.0421436, Final residual = 0.00398221, No Iterations 4
diagonalPBiCGStab:  Solving for Uz, Initial residual = 0.038729, Final residual = 0.00362105, No Iterations 4
GAMG:  Solving for p, Initial residual = 0.348532, Final residual = 0.0194981, No Iterations 3
time step continuity errors : sum local = 0.00010265, global = 3.35332e-05, cumulative = -0.000696473
ExecutionTime = 81.9398 s  ClockTime = 81 s

Time = 70s

diagonalPBiCGStab:  Solving for Ux, Initial residual = 0.036388, Final residual = 0.00285196, No Iterations 4
diagonalPBiCGStab:  Solving for Uy, Initial residual = 0.0417896, Final residual = 0.00308727, No Iterations 5
diagonalPBiCGStab:  Solving for Uz, Initial residual = 0.0392153, Final residual = 0.0034455, No Iterations 4
GAMG:  Solving for p, Initial residual = 0.277197, Final residual = 0.0199533, No Iterations 2
time step continuity errors : sum local = 0.000138814, global = -2.36686e-05, cumulative = -0.000720142
ExecutionTime = 83.0463 s  ClockTime = 83 s

Time = 71s

diagonalPBiCGStab:  Solving for Ux, Initial residual = 0.0400926, Final residual = 0.00341466, No Iterations 3
diagonalPBiCGStab:  Solving for Uy, Initial residual = 0.0402397, Final residual = 0.00350546, No Iterations 5
diagonalPBiCGStab:  Solving for Uz, Initial residual = 0.0393572, Final residual = 0.00365061, No Iterations 4
GAMG:  Solving for p, Initial residual = 0.269885, Final residual = 0.0130801, No Iterations 2
time step continuity errors : sum local = 9.70267e-05, global = -1.84079e-05, cumulative = -0.000738549
ExecutionTime = 84.1294 s  ClockTime = 84 s

Time = 72s

diagonalPBiCGStab:  Solving for Ux, Initial residual = 0.035469, Final residual = 0.0031705, No Iterations 3
diagonalPBiCGStab:  Solving for Uy, Initial residual = 0.0400359, Final residual = 0.0029142, No Iterations 5
diagonalPBiCGStab:  Solving for Uz, Initial residual = 0.0383917, Final residual = 0.00295012, No Iterations 5
GAMG:  Solving for p, Initial residual = 0.287311, Final residual = 0.0169641, No Iterations 2
time step continuity errors : sum local = 0.00011479, global = -1.34336e-05, cumulative = -0.000751983
ExecutionTime = 85.2389 s  ClockTime = 85 s

Time = 73s

diagonalPBiCGStab:  Solving for Ux, Initial residual = 0.0241134, Final residual = 0.00185573, No Iterations 4
diagonalPBiCGStab:  Solving for Uy, Initial residual = 0.0396675, Final residual = 0.00334193, No Iterations 5
diagonalPBiCGStab:  Solving for Uz, Initial residual = 0.0376216, Final residual = 0.00338103, No Iterations 4
GAMG:  Solving for p, Initial residual = 0.389634, Final residual = 0.0259773, No Iterations 2
time step continuity errors : sum local = 0.000122404, global = -1.22674e-05, cumulative = -0.00076425
ExecutionTime = 86.343 s  ClockTime = 86 s

Time = 74s

diagonalPBiCGStab:  Solving for Ux, Initial residual = 0.0235692, Final residual = 0.00225332, No Iterations 4
diagonalPBiCGStab:  Solving for Uy, Initial residual = 0.0392342, Final residual = 0.00375421, No Iterations 4
diagonalPBiCGStab:  Solving for Uz, Initial residual = 0.0376488, Final residual = 0.00351431, No Iterations 4
GAMG:  Solving for p, Initial residual = 0.299248, Final residual = 0.0180272, No Iterations 2
time step continuity errors : sum local = 0.000110547, global = -1.12954e-05, cumulative = -0.000775546
ExecutionTime = 87.426 s  ClockTime = 87 s

Time = 75s

diagonalPBiCGStab:  Solving for Ux, Initial residual = 0.0274157, Final residual = 0.00206484, No Iterations 4
diagonalPBiCGStab:  Solving for Uy, Initial residual = 0.039137, Final residual = 0.0035092, No Iterations 4
diagonalPBiCGStab:  Solving for Uz, Initial residual = 0.0358295, Final residual = 0.0030461, No Iterations 4
GAMG:  Solving for p, Initial residual = 0.287065, Final residual = 0.0196409, No Iterations 2
time step continuity errors : sum local = 0.000123237, global = -1.40235e-05, cumulative = -0.000789569
ExecutionTime = 88.5254 s  ClockTime = 88 s

Time = 76s

diagonalPBiCGStab:  Solving for Ux, Initial residual = 0.026498, Final residual = 0.00211531, No Iterations 4
diagonalPBiCGStab:  Solving for Uy, Initial residual = 0.0404078, Final residual = 0.00362338, No Iterations 4
diagonalPBiCGStab:  Solving for Uz, Initial residual = 0.0350686, Final residual = 0.00311739, No Iterations 4
GAMG:  Solving for p, Initial residual = 0.344947, Final residual = 0.0310624, No Iterations 2
time step continuity errors : sum local = 0.000151542, global = -2.05381e-05, cumulative = -0.000810107
ExecutionTime = 89.6062 s  ClockTime = 89 s

Time = 77s

diagonalPBiCGStab:  Solving for Ux, Initial residual = 0.027666, Final residual = 0.00211429, No Iterations 4
diagonalPBiCGStab:  Solving for Uy, Initial residual = 0.0405891, Final residual = 0.00364631, No Iterations 4
diagonalPBiCGStab:  Solving for Uz, Initial residual = 0.0359752, Final residual = 0.00307782, No Iterations 4
GAMG:  Solving for p, Initial residual = 0.286329, Final residual = 0.0232491, No Iterations 2
time step continuity errors : sum local = 0.000136032, global = -2.60251e-05, cumulative = -0.000836133
ExecutionTime = 90.6714 s  ClockTime = 90 s

Time = 78s

diagonalPBiCGStab:  Solving for Ux, Initial residual = 0.0290137, Final residual = 0.00276474, No Iterations 3
diagonalPBiCGStab:  Solving for Uy, Initial residual = 0.038997, Final residual = 0.00291184, No Iterations 5
diagonalPBiCGStab:  Solving for Uz, Initial residual = 0.0351855, Final residual = 0.00291993, No Iterations 4
GAMG:  Solving for p, Initial residual = 0.258404, Final residual = 0.0163751, No Iterations 2
time step continuity errors : sum local = 0.000109967, global = -2.64555e-05, cumulative = -0.000862588
ExecutionTime = 91.743 s  ClockTime = 91 s

Time = 79s

diagonalPBiCGStab:  Solving for Ux, Initial residual = 0.0287838, Final residual = 0.00258269, No Iterations 3
diagonalPBiCGStab:  Solving for Uy, Initial residual = 0.0396698, Final residual = 0.00394234, No Iterations 4
diagonalPBiCGStab:  Solving for Uz, Initial residual = 0.0346792, Final residual = 0.00289725, No Iterations 4
GAMG:  Solving for p, Initial residual = 0.260647, Final residual = 0.0143365, No Iterations 2
time step continuity errors : sum local = 9.61645e-05, global = -2.03977e-05, cumulative = -0.000882986
ExecutionTime = 92.8135 s  ClockTime = 92 s

Time = 80s

diagonalPBiCGStab:  Solving for Ux, Initial residual = 0.026321, Final residual = 0.00249138, No Iterations 3
diagonalPBiCGStab:  Solving for Uy, Initial residual = 0.040992, Final residual = 0.00302323, No Iterations 5
diagonalPBiCGStab:  Solving for Uz, Initial residual = 0.0339771, Final residual = 0.00276436, No Iterations 4
GAMG:  Solving for p, Initial residual = 0.278661, Final residual = 0.0167468, No Iterations 2
time step continuity errors : sum local = 0.000103519, global = -1.14453e-05, cumulative = -0.000894431
ExecutionTime = 93.9025 s  ClockTime = 93 s

Time = 81s

diagonalPBiCGStab:  Solving for Ux, Initial residual = 0.0210677, Final residual = 0.00163458, No Iterations 4
diagonalPBiCGStab:  Solving for Uy, Initial residual = 0.0408878, Final residual = 0.00350733, No Iterations 4
diagonalPBiCGStab:  Solving for Uz, Initial residual = 0.0330872, Final residual = 0.00278984, No Iterations 4
GAMG:  Solving for p, Initial residual = 0.34232, Final residual = 0.021581, No Iterations 2
time step continuity errors : sum local = 0.00010601, global = -8.23297e-06, cumulative = -0.000902664
ExecutionTime = 95.0003 s  ClockTime = 95 s

Time = 82s

diagonalPBiCGStab:  Solving for Ux, Initial residual = 0.0174205, Final residual = 0.00133352, No Iterations 4
diagonalPBiCGStab:  Solving for Uy, Initial residual = 0.0394838, Final residual = 0.00350215, No Iterations 4
diagonalPBiCGStab:  Solving for Uz, Initial residual = 0.0326521, Final residual = 0.00270596, No Iterations 4
GAMG:  Solving for p, Initial residual = 0.334703, Final residual = 0.0204807, No Iterations 2
time step continuity errors : sum local = 0.000101652, global = -1.20846e-05, cumulative = -0.000914749
ExecutionTime = 96.0945 s  ClockTime = 96 s

Time = 83s

diagonalPBiCGStab:  Solving for Ux, Initial residual = 0.0197785, Final residual = 0.00168754, No Iterations 5
diagonalPBiCGStab:  Solving for Uy, Initial residual = 0.0384575, Final residual = 0.00350312, No Iterations 4
diagonalPBiCGStab:  Solving for Uz, Initial residual = 0.0318573, Final residual = 0.00279823, No Iterations 4
GAMG:  Solving for p, Initial residual = 0.319645, Final residual = 0.0204044, No Iterations 2
time step continuity errors : sum local = 0.000105054, global = -1.25415e-05, cumulative = -0.00092729
ExecutionTime = 97.203 s  ClockTime = 97 s

Time = 84s

diagonalPBiCGStab:  Solving for Ux, Initial residual = 0.0206937, Final residual = 0.00183693, No Iterations 4
diagonalPBiCGStab:  Solving for Uy, Initial residual = 0.0379263, Final residual = 0.00279538, No Iterations 5
diagonalPBiCGStab:  Solving for Uz, Initial residual = 0.0309027, Final residual = 0.00250313, No Iterations 4
GAMG:  Solving for p, Initial residual = 0.351734, Final residual = 0.0265406, No Iterations 2
time step continuity errors : sum local = 0.000118044, global = -1.8169e-05, cumulative = -0.000945459
ExecutionTime = 98.3188 s  ClockTime = 98 s

Time = 85s

diagonalPBiCGStab:  Solving for Ux, Initial residual = 0.0204623, Final residual = 0.00190978, No Iterations 4
diagonalPBiCGStab:  Solving for Uy, Initial residual = 0.0377038, Final residual = 0.00336024, No Iterations 4
diagonalPBiCGStab:  Solving for Uz, Initial residual = 0.03086, Final residual = 0.0030439, No Iterations 5
GAMG:  Solving for p, Initial residual = 0.30043, Final residual = 0.0237488, No Iterations 2
time step continuity errors : sum local = 0.000117948, global = -2.07399e-05, cumulative = -0.000966199
ExecutionTime = 99.3863 s  ClockTime = 99 s

Time = 86s

diagonalPBiCGStab:  Solving for Ux, Initial residual = 0.0214178, Final residual = 0.00188314, No Iterations 4
diagonalPBiCGStab:  Solving for Uy, Initial residual = 0.0374175, Final residual = 0.00325866, No Iterations 4
diagonalPBiCGStab:  Solving for Uz, Initial residual = 0.0306798, Final residual = 0.00258903, No Iterations 4
GAMG:  Solving for p, Initial residual = 0.254093, Final residual = 0.0167538, No Iterations 2
time step continuity errors : sum local = 9.93788e-05, global = -2.08783e-05, cumulative = -0.000987077
ExecutionTime = 100.471 s  ClockTime = 100 s

Time = 87s

diagonalPBiCGStab:  Solving for Ux, Initial residual = 0.0222096, Final residual = 0.00221747, No Iterations 3
diagonalPBiCGStab:  Solving for Uy, Initial residual = 0.0375988, Final residual = 0.00348339, No Iterations 4
diagonalPBiCGStab:  Solving for Uz, Initial residual = 0.0301768, Final residual = 0.00254953, No Iterations 4
GAMG:  Solving for p, Initial residual = 0.245621, Final residual = 0.0130567, No Iterations 2
time step continuity errors : sum local = 8.14045e-05, global = -1.63228e-05, cumulative = -0.0010034
ExecutionTime = 101.545 s  ClockTime = 101 s

Time = 88s

diagonalPBiCGStab:  Solving for Ux, Initial residual = 0.0215204, Final residual = 0.00179342, No Iterations 4
diagonalPBiCGStab:  Solving for Uy, Initial residual = 0.0374824, Final residual = 0.00270695, No Iterations 5
diagonalPBiCGStab:  Solving for Uz, Initial residual = 0.0296501, Final residual = 0.00236181, No Iterations 4
GAMG:  Solving for p, Initial residual = 0.25036, Final residual = 0.0123239, No Iterations 2
time step continuity errors : sum local = 7.41508e-05, global = -1.20651e-05, cumulative = -0.00101547
ExecutionTime = 102.643 s  ClockTime = 102 s

Time = 89s

diagonalPBiCGStab:  Solving for Ux, Initial residual = 0.0182629, Final residual = 0.00141189, No Iterations 4
diagonalPBiCGStab:  Solving for Uy, Initial residual = 0.0360194, Final residual = 0.00310695, No Iterations 4
diagonalPBiCGStab:  Solving for Uz, Initial residual = 0.0288402, Final residual = 0.002333, No Iterations 5
GAMG:  Solving for p, Initial residual = 0.269465, Final residual = 0.0137234, No Iterations 2
time step continuity errors : sum local = 7.41209e-05, global = -7.74923e-06, cumulative = -0.00102321
ExecutionTime = 103.76 s  ClockTime = 103 s

Time = 90s

diagonalPBiCGStab:  Solving for Ux, Initial residual = 0.0136254, Final residual = 0.00111325, No Iterations 4
diagonalPBiCGStab:  Solving for Uy, Initial residual = 0.0338082, Final residual = 0.00318184, No Iterations 5
diagonalPBiCGStab:  Solving for Uz, Initial residual = 0.0278222, Final residual = 0.00229886, No Iterations 4
GAMG:  Solving for p, Initial residual = 0.314761, Final residual = 0.0160249, No Iterations 2
time step continuity errors : sum local = 7.1544e-05, global = -8.6439e-06, cumulative = -0.00103186
ExecutionTime = 104.867 s  ClockTime = 104 s

Time = 91s

diagonalPBiCGStab:  Solving for Ux, Initial residual = 0.0123022, Final residual = 0.00102353, No Iterations 4
diagonalPBiCGStab:  Solving for Uy, Initial residual = 0.0323475, Final residual = 0.00263043, No Iterations 4
diagonalPBiCGStab:  Solving for Uz, Initial residual = 0.027103, Final residual = 0.00225799, No Iterations 4
GAMG:  Solving for p, Initial residual = 0.349402, Final residual = 0.0205431, No Iterations 2
time step continuity errors : sum local = 8.09926e-05, global = -9.11058e-06, cumulative = -0.00104097
ExecutionTime = 105.966 s  ClockTime = 105 s

Time = 92s

diagonalPBiCGStab:  Solving for Ux, Initial residual = 0.0138995, Final residual = 0.00106466, No Iterations 4
diagonalPBiCGStab:  Solving for Uy, Initial residual = 0.0317479, Final residual = 0.0028746, No Iterations 4
diagonalPBiCGStab:  Solving for Uz, Initial residual = 0.0262207, Final residual = 0.00223487, No Iterations 4
GAMG:  Solving for p, Initial residual = 0.33274, Final residual = 0.021588, No Iterations 2
time step continuity errors : sum local = 8.67784e-05, global = -6.84251e-06, cumulative = -0.00104781
ExecutionTime = 107.059 s  ClockTime = 107 s

Time = 93s

diagonalPBiCGStab:  Solving for Ux, Initial residual = 0.0154174, Final residual = 0.00139146, No Iterations 4
diagonalPBiCGStab:  Solving for Uy, Initial residual = 0.031918, Final residual = 0.00248458, No Iterations 4
diagonalPBiCGStab:  Solving for Uz, Initial residual = 0.0259084, Final residual = 0.00246193, No Iterations 5
GAMG:  Solving for p, Initial residual = 0.282176, Final residual = 0.0130299, No Iterations 2
time step continuity errors : sum local = 5.99383e-05, global = 1.01749e-05, cumulative = -0.00103764
ExecutionTime = 108.134 s  ClockTime = 108 s

Time = 94s

diagonalPBiCGStab:  Solving for Ux, Initial residual = 0.0146745, Final residual = 0.000912982, No Iterations 5
diagonalPBiCGStab:  Solving for Uy, Initial residual = 0.0309004, Final residual = 0.00295264, No Iterations 4
diagonalPBiCGStab:  Solving for Uz, Initial residual = 0.025384, Final residual = 0.00206173, No Iterations 4
GAMG:  Solving for p, Initial residual = 0.248063, Final residual = 0.0151152, No Iterations 2
time step continuity errors : sum local = 7.68805e-05, global = 1.18945e-05, cumulative = -0.00102574
ExecutionTime = 109.218 s  ClockTime = 109 s

Time = 95s

diagonalPBiCGStab:  Solving for Ux, Initial residual = 0.0137269, Final residual = 0.001325, No Iterations 4
diagonalPBiCGStab:  Solving for Uy, Initial residual = 0.0295461, Final residual = 0.00230567, No Iterations 5
diagonalPBiCGStab:  Solving for Uz, Initial residual = 0.0250393, Final residual = 0.0019098, No Iterations 5
GAMG:  Solving for p, Initial residual = 0.236403, Final residual = 0.0231591, No Iterations 2
time step continuity errors : sum local = 0.000120116, global = 1.30781e-05, cumulative = -0.00101266
ExecutionTime = 110.323 s  ClockTime = 110 s

Time = 96s

diagonalPBiCGStab:  Solving for Ux, Initial residual = 0.0133027, Final residual = 0.00085677, No Iterations 5
diagonalPBiCGStab:  Solving for Uy, Initial residual = 0.0280743, Final residual = 0.0022889, No Iterations 4
diagonalPBiCGStab:  Solving for Uz, Initial residual = 0.0246313, Final residual = 0.00221853, No Iterations 4
GAMG:  Solving for p, Initial residual = 0.24042, Final residual = 0.0224763, No Iterations 2
time step continuity errors : sum local = 0.000111897, global = 7.09259e-06, cumulative = -0.00100557
ExecutionTime = 111.433 s  ClockTime = 111 s

Time = 97s

diagonalPBiCGStab:  Solving for Ux, Initial residual = 0.012381, Final residual = 0.00120865, No Iterations 4
diagonalPBiCGStab:  Solving for Uy, Initial residual = 0.0263916, Final residual = 0.0020303, No Iterations 5
diagonalPBiCGStab:  Solving for Uz, Initial residual = 0.0238829, Final residual = 0.00213519, No Iterations 4
GAMG:  Solving for p, Initial residual = 0.25683, Final residual = 0.00710322, No Iterations 3
time step continuity errors : sum local = 3.22609e-05, global = -2.58216e-06, cumulative = -0.00100815
ExecutionTime = 112.595 s  ClockTime = 112 s

Time = 98s

diagonalPBiCGStab:  Solving for Ux, Initial residual = 0.0104799, Final residual = 0.000846516, No Iterations 4
diagonalPBiCGStab:  Solving for Uy, Initial residual = 0.0248059, Final residual = 0.00205639, No Iterations 4
diagonalPBiCGStab:  Solving for Uz, Initial residual = 0.0228648, Final residual = 0.00189235, No Iterations 5
GAMG:  Solving for p, Initial residual = 0.279439, Final residual = 0.0147422, No Iterations 2
time step continuity errors : sum local = 5.88939e-05, global = 9.72867e-06, cumulative = -0.000998425
ExecutionTime = 113.704 s  ClockTime = 113 s

Time = 99s

diagonalPBiCGStab:  Solving for Ux, Initial residual = 0.00885325, Final residual = 0.000789139, No Iterations 4
diagonalPBiCGStab:  Solving for Uy, Initial residual = 0.0235523, Final residual = 0.00201827, No Iterations 4
diagonalPBiCGStab:  Solving for Uz, Initial residual = 0.0215936, Final residual = 0.00178371, No Iterations 4
GAMG:  Solving for p, Initial residual = 0.278434, Final residual = 0.0135136, No Iterations 2
time step continuity errors : sum local = 5.12655e-05, global = 7.42984e-06, cumulative = -0.000990995
ExecutionTime = 114.797 s  ClockTime = 114 s

Time = 100s

diagonalPBiCGStab:  Solving for Ux, Initial residual = 0.00886628, Final residual = 0.000694515, No Iterations 4
diagonalPBiCGStab:  Solving for Uy, Initial residual = 0.0232297, Final residual = 0.00181992, No Iterations 5
diagonalPBiCGStab:  Solving for Uz, Initial residual = 0.0207884, Final residual = 0.00174901, No Iterations 4
GAMG:  Solving for p, Initial residual = 0.276475, Final residual = 0.0146231, No Iterations 2
time step continuity errors : sum local = 5.41107e-05, global = 7.01521e-06, cumulative = -0.00098398
ExecutionTime = 115.919 s  ClockTime = 115 s

Time = 101s

diagonalPBiCGStab:  Solving for Ux, Initial residual = 0.00926243, Final residual = 0.000914058, No Iterations 4
diagonalPBiCGStab:  Solving for Uy, Initial residual = 0.0227165, Final residual = 0.00158901, No Iterations 5
diagonalPBiCGStab:  Solving for Uz, Initial residual = 0.0200573, Final residual = 0.00153188, No Iterations 5
GAMG:  Solving for p, Initial residual = 0.27132, Final residual = 0.0124818, No Iterations 2
time step continuity errors : sum local = 4.56909e-05, global = 1.32854e-06, cumulative = -0.000982651
ExecutionTime = 117.036 s  ClockTime = 117 s

Time = 102s

diagonalPBiCGStab:  Solving for Ux, Initial residual = 0.00881852, Final residual = 0.000585972, No Iterations 5
diagonalPBiCGStab:  Solving for Uy, Initial residual = 0.0220106, Final residual = 0.00152963, No Iterations 5
diagonalPBiCGStab:  Solving for Uz, Initial residual = 0.0195146, Final residual = 0.0014697, No Iterations 4
GAMG:  Solving for p, Initial residual = 0.262188, Final residual = 0.0143509, No Iterations 2
time step continuity errors : sum local = 5.25474e-05, global = 7.59565e-06, cumulative = -0.000975056
ExecutionTime = 118.137 s  ClockTime = 118 s

Time = 103s

diagonalPBiCGStab:  Solving for Ux, Initial residual = 0.00741216, Final residual = 0.000587034, No Iterations 4
diagonalPBiCGStab:  Solving for Uy, Initial residual = 0.0209966, Final residual = 0.00155664, No Iterations 4
diagonalPBiCGStab:  Solving for Uz, Initial residual = 0.0192751, Final residual = 0.00146081, No Iterations 4
GAMG:  Solving for p, Initial residual = 0.25241, Final residual = 0.0157964, No Iterations 2
time step continuity errors : sum local = 5.806e-05, global = 7.37312e-06, cumulative = -0.000967683
ExecutionTime = 119.207 s  ClockTime = 119 s

Time = 104s

diagonalPBiCGStab:  Solving for Ux, Initial residual = 0.00716319, Final residual = 0.000637192, No Iterations 4
diagonalPBiCGStab:  Solving for Uy, Initial residual = 0.0202471, Final residual = 0.00176214, No Iterations 4
diagonalPBiCGStab:  Solving for Uz, Initial residual = 0.0190896, Final residual = 0.00151963, No Iterations 4
GAMG:  Solving for p, Initial residual = 0.251038, Final residual = 0.0135991, No Iterations 2
time step continuity errors : sum local = 5.02706e-05, global = 2.84595e-06, cumulative = -0.000964837
ExecutionTime = 120.297 s  ClockTime = 120 s

Time = 105s

diagonalPBiCGStab:  Solving for Ux, Initial residual = 0.00781943, Final residual = 0.00071018, No Iterations 4
diagonalPBiCGStab:  Solving for Uy, Initial residual = 0.0195827, Final residual = 0.00144822, No Iterations 4
diagonalPBiCGStab:  Solving for Uz, Initial residual = 0.0184139, Final residual = 0.00138258, No Iterations 4
GAMG:  Solving for p, Initial residual = 0.247372, Final residual = 0.0104665, No Iterations 2
time step continuity errors : sum local = 3.90615e-05, global = 1.84636e-07, cumulative = -0.000964652
ExecutionTime = 121.379 s  ClockTime = 121 s

Time = 106s

diagonalPBiCGStab:  Solving for Ux, Initial residual = 0.00741511, Final residual = 0.000459892, No Iterations 5
diagonalPBiCGStab:  Solving for Uy, Initial residual = 0.0189566, Final residual = 0.00134478, No Iterations 5
diagonalPBiCGStab:  Solving for Uz, Initial residual = 0.0178049, Final residual = 0.00141431, No Iterations 4
GAMG:  Solving for p, Initial residual = 0.236415, Final residual = 0.0138484, No Iterations 2
time step continuity errors : sum local = 5.20475e-05, global = -4.4161e-06, cumulative = -0.000969068
ExecutionTime = 122.48 s  ClockTime = 122 s

Time = 107s

diagonalPBiCGStab:  Solving for Ux, Initial residual = 0.0064684, Final residual = 0.000546416, No Iterations 4
diagonalPBiCGStab:  Solving for Uy, Initial residual = 0.0187471, Final residual = 0.00178454, No Iterations 4
diagonalPBiCGStab:  Solving for Uz, Initial residual = 0.017553, Final residual = 0.000746273, No Iterations 6
GAMG:  Solving for p, Initial residual = 0.227188, Final residual = 0.0137052, No Iterations 2
time step continuity errors : sum local = 5.15323e-05, global = -7.75844e-06, cumulative = -0.000976826
ExecutionTime = 123.601 s  ClockTime = 123 s

Time = 108s

diagonalPBiCGStab:  Solving for Ux, Initial residual = 0.0063036, Final residual = 0.000547758, No Iterations 4
diagonalPBiCGStab:  Solving for Uy, Initial residual = 0.0187587, Final residual = 0.00168181, No Iterations 4
diagonalPBiCGStab:  Solving for Uz, Initial residual = 0.0172036, Final residual = 0.00140204, No Iterations 4
GAMG:  Solving for p, Initial residual = 0.227873, Final residual = 0.0113483, No Iterations 2
time step continuity errors : sum local = 4.22742e-05, global = 1.47802e-06, cumulative = -0.000975348
ExecutionTime = 124.669 s  ClockTime = 124 s

Time = 109s

diagonalPBiCGStab:  Solving for Ux, Initial residual = 0.00632307, Final residual = 0.000446281, No Iterations 4
diagonalPBiCGStab:  Solving for Uy, Initial residual = 0.0190257, Final residual = 0.00167425, No Iterations 4
diagonalPBiCGStab:  Solving for Uz, Initial residual = 0.0171229, Final residual = 0.00157941, No Iterations 4
GAMG:  Solving for p, Initial residual = 0.234344, Final residual = 0.00973942, No Iterations 2
time step continuity errors : sum local = 3.51655e-05, global = -6.4943e-06, cumulative = -0.000981843
ExecutionTime = 125.739 s  ClockTime = 125 s

Time = 110s

diagonalPBiCGStab:  Solving for Ux, Initial residual = 0.00591446, Final residual = 0.000408378, No Iterations 5
diagonalPBiCGStab:  Solving for Uy, Initial residual = 0.018805, Final residual = 0.00160169, No Iterations 4
diagonalPBiCGStab:  Solving for Uz, Initial residual = 0.0168899, Final residual = 0.00145404, No Iterations 4
GAMG:  Solving for p, Initial residual = 0.232821, Final residual = 0.0102636, No Iterations 2
time step continuity errors : sum local = 3.6742e-05, global = -7.50483e-06, cumulative = -0.000989348
ExecutionTime = 126.829 s  ClockTime = 126 s

Time = 111s

diagonalPBiCGStab:  Solving for Ux, Initial residual = 0.00553914, Final residual = 0.000476621, No Iterations 4
diagonalPBiCGStab:  Solving for Uy, Initial residual = 0.0184777, Final residual = 0.00156338, No Iterations 4
diagonalPBiCGStab:  Solving for Uz, Initial residual = 0.0167329, Final residual = 0.00165728, No Iterations 4
GAMG:  Solving for p, Initial residual = 0.231235, Final residual = 0.011441, No Iterations 2
time step continuity errors : sum local = 4.11448e-05, global = -9.33823e-06, cumulative = -0.000998686
ExecutionTime = 127.867 s  ClockTime = 127 s

Time = 112s

diagonalPBiCGStab:  Solving for Ux, Initial residual = 0.0055004, Final residual = 0.000465311, No Iterations 4
diagonalPBiCGStab:  Solving for Uy, Initial residual = 0.0180491, Final residual = 0.00155028, No Iterations 4
diagonalPBiCGStab:  Solving for Uz, Initial residual = 0.0165648, Final residual = 0.001248, No Iterations 4
GAMG:  Solving for p, Initial residual = 0.230463, Final residual = 0.0146284, No Iterations 2
time step continuity errors : sum local = 5.34496e-05, global = -1.22714e-05, cumulative = -0.00101096
ExecutionTime = 128.911 s  ClockTime = 128 s

Time = 113s

diagonalPBiCGStab:  Solving for Ux, Initial residual = 0.00609408, Final residual = 0.000491278, No Iterations 4
diagonalPBiCGStab:  Solving for Uy, Initial residual = 0.0177644, Final residual = 0.00158164, No Iterations 4
diagonalPBiCGStab:  Solving for Uz, Initial residual = 0.0163334, Final residual = 0.00126787, No Iterations 4
GAMG:  Solving for p, Initial residual = 0.235539, Final residual = 0.012845, No Iterations 2
time step continuity errors : sum local = 4.70748e-05, global = -9.9431e-07, cumulative = -0.00101195
ExecutionTime = 129.976 s  ClockTime = 130 s

Time = 114s

diagonalPBiCGStab:  Solving for Ux, Initial residual = 0.00702847, Final residual = 0.000605219, No Iterations 4
diagonalPBiCGStab:  Solving for Uy, Initial residual = 0.0176291, Final residual = 0.00159935, No Iterations 4
diagonalPBiCGStab:  Solving for Uz, Initial residual = 0.0163062, Final residual = 0.00129016, No Iterations 4
GAMG:  Solving for p, Initial residual = 0.239465, Final residual = 0.00968297, No Iterations 2
time step continuity errors : sum local = 3.63436e-05, global = -2.59633e-07, cumulative = -0.00101221
ExecutionTime = 131.047 s  ClockTime = 131 s

Time = 115s

diagonalPBiCGStab:  Solving for Ux, Initial residual = 0.00705832, Final residual = 0.000559277, No Iterations 4
diagonalPBiCGStab:  Solving for Uy, Initial residual = 0.0170366, Final residual = 0.00140666, No Iterations 4
diagonalPBiCGStab:  Solving for Uz, Initial residual = 0.0160493, Final residual = 0.0014627, No Iterations 4
GAMG:  Solving for p, Initial residual = 0.239536, Final residual = 0.013929, No Iterations 2
time step continuity errors : sum local = 5.30615e-05, global = -5.89615e-06, cumulative = -0.00101811
ExecutionTime = 132.125 s  ClockTime = 132 s

Time = 116s

diagonalPBiCGStab:  Solving for Ux, Initial residual = 0.00633229, Final residual = 0.000427496, No Iterations 4
diagonalPBiCGStab:  Solving for Uy, Initial residual = 0.016468, Final residual = 0.0015011, No Iterations 4
diagonalPBiCGStab:  Solving for Uz, Initial residual = 0.0159097, Final residual = 0.00153602, No Iterations 4
GAMG:  Solving for p, Initial residual = 0.240164, Final residual = 0.0104138, No Iterations 2
time step continuity errors : sum local = 3.94784e-05, global = -4.68359e-06, cumulative = -0.00102279
ExecutionTime = 133.206 s  ClockTime = 133 s

Time = 117s

diagonalPBiCGStab:  Solving for Ux, Initial residual = 0.00552309, Final residual = 0.000432039, No Iterations 4
diagonalPBiCGStab:  Solving for Uy, Initial residual = 0.0163094, Final residual = 0.000396973, No Iterations 7
diagonalPBiCGStab:  Solving for Uz, Initial residual = 0.0159298, Final residual = 0.00146965, No Iterations 4
GAMG:  Solving for p, Initial residual = 0.238462, Final residual = 0.00996114, No Iterations 2
time step continuity errors : sum local = 3.82698e-05, global = -5.51254e-06, cumulative = -0.0010283
ExecutionTime = 134.353 s  ClockTime = 134 s

Time = 118s

diagonalPBiCGStab:  Solving for Ux, Initial residual = 0.00574416, Final residual = 0.000400912, No Iterations 5
diagonalPBiCGStab:  Solving for Uy, Initial residual = 0.0164651, Final residual = 0.000856502, No Iterations 5
diagonalPBiCGStab:  Solving for Uz, Initial residual = 0.015826, Final residual = 0.00140984, No Iterations 4
GAMG:  Solving for p, Initial residual = 0.234233, Final residual = 0.00917706, No Iterations 2
time step continuity errors : sum local = 3.60195e-05, global = -4.37519e-07, cumulative = -0.00102874
ExecutionTime = 135.448 s  ClockTime = 135 s

Time = 119s

diagonalPBiCGStab:  Solving for Ux, Initial residual = 0.00600261, Final residual = 0.000550271, No Iterations 4
diagonalPBiCGStab:  Solving for Uy, Initial residual = 0.0164565, Final residual = 0.000493662, No Iterations 6
diagonalPBiCGStab:  Solving for Uz, Initial residual = 0.015627, Final residual = 0.00143621, No Iterations 4
GAMG:  Solving for p, Initial residual = 0.230169, Final residual = 0.00959578, No Iterations 2
time step continuity errors : sum local = 3.84894e-05, global = -2.19697e-06, cumulative = -0.00103094
ExecutionTime = 136.574 s  ClockTime = 136 s

Time = 120s

diagonalPBiCGStab:  Solving for Ux, Initial residual = 0.00586651, Final residual = 0.000475257, No Iterations 4
diagonalPBiCGStab:  Solving for Uy, Initial residual = 0.0161968, Final residual = 0.00138006, No Iterations 4
diagonalPBiCGStab:  Solving for Uz, Initial residual = 0.0155066, Final residual = 0.00144347, No Iterations 4
GAMG:  Solving for p, Initial residual = 0.229465, Final residual = 0.0148164, No Iterations 2
time step continuity errors : sum local = 5.97451e-05, global = 2.83797e-06, cumulative = -0.0010281
ExecutionTime = 137.653 s  ClockTime = 137 s

Time = 121s

diagonalPBiCGStab:  Solving for Ux, Initial residual = 0.00574282, Final residual = 0.000349442, No Iterations 5
diagonalPBiCGStab:  Solving for Uy, Initial residual = 0.0159228, Final residual = 0.00114647, No Iterations 4
diagonalPBiCGStab:  Solving for Uz, Initial residual = 0.0156332, Final residual = 0.00136189, No Iterations 4
GAMG:  Solving for p, Initial residual = 0.235547, Final residual = 0.015526, No Iterations 2
time step continuity errors : sum local = 6.13432e-05, global = 1.22164e-06, cumulative = -0.00102688
ExecutionTime = 138.761 s  ClockTime = 138 s

Time = 122s

diagonalPBiCGStab:  Solving for Ux, Initial residual = 0.00633217, Final residual = 0.000522067, No Iterations 4
diagonalPBiCGStab:  Solving for Uy, Initial residual = 0.0155689, Final residual = 0.00152466, No Iterations 4
diagonalPBiCGStab:  Solving for Uz, Initial residual = 0.0157074, Final residual = 0.00124136, No Iterations 4
GAMG:  Solving for p, Initial residual = 0.238576, Final residual = 0.0111487, No Iterations 2
time step continuity errors : sum local = 4.40728e-05, global = 6.34186e-08, cumulative = -0.00102681
ExecutionTime = 139.827 s  ClockTime = 139 s

Time = 123s

diagonalPBiCGStab:  Solving for Ux, Initial residual = 0.00642946, Final residual = 0.000608876, No Iterations 4
diagonalPBiCGStab:  Solving for Uy, Initial residual = 0.0150924, Final residual = 0.00108081, No Iterations 4
diagonalPBiCGStab:  Solving for Uz, Initial residual = 0.0155998, Final residual = 0.00116043, No Iterations 4
GAMG:  Solving for p, Initial residual = 0.225994, Final residual = 0.00946911, No Iterations 2
time step continuity errors : sum local = 3.95265e-05, global = 5.72382e-06, cumulative = -0.00102109
ExecutionTime = 140.9 s  ClockTime = 140 s

Time = 124s

diagonalPBiCGStab:  Solving for Ux, Initial residual = 0.00601348, Final residual = 0.000530765, No Iterations 4
diagonalPBiCGStab:  Solving for Uy, Initial residual = 0.014669, Final residual = 0.00103004, No Iterations 4
diagonalPBiCGStab:  Solving for Uz, Initial residual = 0.0155234, Final residual = 0.00147423, No Iterations 4
GAMG:  Solving for p, Initial residual = 0.21962, Final residual = 0.0108909, No Iterations 2
time step continuity errors : sum local = 4.63108e-05, global = 5.11868e-06, cumulative = -0.00101597
ExecutionTime = 141.966 s  ClockTime = 141 s

Time = 125s

diagonalPBiCGStab:  Solving for Ux, Initial residual = 0.00540867, Final residual = 0.000412067, No Iterations 4
diagonalPBiCGStab:  Solving for Uy, Initial residual = 0.0144436, Final residual = 0.00134007, No Iterations 4
diagonalPBiCGStab:  Solving for Uz, Initial residual = 0.015454, Final residual = 0.00144273, No Iterations 4
GAMG:  Solving for p, Initial residual = 0.216484, Final residual = 0.00913355, No Iterations 2
time step continuity errors : sum local = 3.93353e-05, global = -2.04606e-07, cumulative = -0.00101618
ExecutionTime = 143.015 s  ClockTime = 143 s

Time = 126s

diagonalPBiCGStab:  Solving for Ux, Initial residual = 0.00518516, Final residual = 0.000411045, No Iterations 4
diagonalPBiCGStab:  Solving for Uy, Initial residual = 0.0144793, Final residual = 0.00138216, No Iterations 5
diagonalPBiCGStab:  Solving for Uz, Initial residual = 0.0153416, Final residual = 0.00139792, No Iterations 4
GAMG:  Solving for p, Initial residual = 0.214639, Final residual = 0.00785242, No Iterations 2
time step continuity errors : sum local = 3.40919e-05, global = -1.8689e-07, cumulative = -0.00101636
ExecutionTime = 144.118 s  ClockTime = 144 s

Time = 127s

diagonalPBiCGStab:  Solving for Ux, Initial residual = 0.00508029, Final residual = 0.000465803, No Iterations 4
diagonalPBiCGStab:  Solving for Uy, Initial residual = 0.0142537, Final residual = 0.00130444, No Iterations 4
diagonalPBiCGStab:  Solving for Uz, Initial residual = 0.0150916, Final residual = 0.00138947, No Iterations 4
GAMG:  Solving for p, Initial residual = 0.211111, Final residual = 0.00877666, No Iterations 2
time step continuity errors : sum local = 3.82822e-05, global = 3.56519e-07, cumulative = -0.00101601
ExecutionTime = 145.188 s  ClockTime = 145 s

Time = 128s

diagonalPBiCGStab:  Solving for Ux, Initial residual = 0.00504156, Final residual = 0.000447398, No Iterations 4
diagonalPBiCGStab:  Solving for Uy, Initial residual = 0.0141278, Final residual = 0.00101104, No Iterations 5
diagonalPBiCGStab:  Solving for Uz, Initial residual = 0.015037, Final residual = 0.00109244, No Iterations 4
GAMG:  Solving for p, Initial residual = 0.211113, Final residual = 0.00987532, No Iterations 2
time step continuity errors : sum local = 4.24399e-05, global = 2.02571e-06, cumulative = -0.00101398
ExecutionTime = 146.293 s  ClockTime = 146 s

Time = 129s

diagonalPBiCGStab:  Solving for Ux, Initial residual = 0.00517074, Final residual = 0.00042226, No Iterations 4
diagonalPBiCGStab:  Solving for Uy, Initial residual = 0.0138264, Final residual = 0.000772814, No Iterations 5
diagonalPBiCGStab:  Solving for Uz, Initial residual = 0.015059, Final residual = 0.00140247, No Iterations 4
GAMG:  Solving for p, Initial residual = 0.212335, Final residual = 0.00946358, No Iterations 2
time step continuity errors : sum local = 3.99761e-05, global = 1.87426e-06, cumulative = -0.00101211
ExecutionTime = 147.382 s  ClockTime = 147 s

Time = 130s

diagonalPBiCGStab:  Solving for Ux, Initial residual = 0.00539922, Final residual = 0.000468192, No Iterations 4
diagonalPBiCGStab:  Solving for Uy, Initial residual = 0.0134516, Final residual = 0.00115516, No Iterations 4
diagonalPBiCGStab:  Solving for Uz, Initial residual = 0.0151298, Final residual = 0.00142041, No Iterations 4
GAMG:  Solving for p, Initial residual = 0.214497, Final residual = 0.00783788, No Iterations 2
time step continuity errors : sum local = 3.27486e-05, global = 2.54714e-07, cumulative = -0.00101185
ExecutionTime = 148.439 s  ClockTime = 148 s

Time = 131s

diagonalPBiCGStab:  Solving for Ux, Initial residual = 0.00548307, Final residual = 0.000455383, No Iterations 4
diagonalPBiCGStab:  Solving for Uy, Initial residual = 0.0131772, Final residual = 0.00106469, No Iterations 4
diagonalPBiCGStab:  Solving for Uz, Initial residual = 0.0151071, Final residual = 0.00146007, No Iterations 4
GAMG:  Solving for p, Initial residual = 0.214273, Final residual = 0.00810275, No Iterations 2
time step continuity errors : sum local = 3.39007e-05, global = 1.7514e-06, cumulative = -0.0010101
ExecutionTime = 149.509 s  ClockTime = 149 s

Time = 132s

diagonalPBiCGStab:  Solving for Ux, Initial residual = 0.00549154, Final residual = 0.000467124, No Iterations 4
diagonalPBiCGStab:  Solving for Uy, Initial residual = 0.0129797, Final residual = 0.00117265, No Iterations 4
diagonalPBiCGStab:  Solving for Uz, Initial residual = 0.0151281, Final residual = 0.00144395, No Iterations 4
GAMG:  Solving for p, Initial residual = 0.213554, Final residual = 0.00866605, No Iterations 2
time step continuity errors : sum local = 3.63437e-05, global = 1.23498e-06, cumulative = -0.00100887
ExecutionTime = 150.561 s  ClockTime = 150 s

Time = 133s

diagonalPBiCGStab:  Solving for Ux, Initial residual = 0.00533903, Final residual = 0.000462815, No Iterations 4
diagonalPBiCGStab:  Solving for Uy, Initial residual = 0.0129326, Final residual = 0.0010872, No Iterations 4
diagonalPBiCGStab:  Solving for Uz, Initial residual = 0.0152527, Final residual = 0.00109656, No Iterations 4
GAMG:  Solving for p, Initial residual = 0.211903, Final residual = 0.00962406, No Iterations 2
time step continuity errors : sum local = 4.04247e-05, global = -4.7744e-07, cumulative = -0.00100934
ExecutionTime = 151.624 s  ClockTime = 151 s

Time = 134s

diagonalPBiCGStab:  Solving for Ux, Initial residual = 0.00500651, Final residual = 0.000463522, No Iterations 4
diagonalPBiCGStab:  Solving for Uy, Initial residual = 0.01282, Final residual = 0.00080908, No Iterations 5
diagonalPBiCGStab:  Solving for Uz, Initial residual = 0.0153262, Final residual = 0.00149195, No Iterations 4
GAMG:  Solving for p, Initial residual = 0.210604, Final residual = 0.0088746, No Iterations 2
time step continuity errors : sum local = 3.74156e-05, global = 4.33583e-07, cumulative = -0.00100891
ExecutionTime = 152.683 s  ClockTime = 152 s

Time = 135s

[...]
diagonalPBiCGStab:  Solving for Uz, Initial residual = 0.00877592, Final residual = 0.000576181, No Iterations 5
GAMG:  Solving for p, Initial residual = 0.151799, Final residual = 0.0069001, No Iterations 2
time step continuity errors : sum local = 0.000163465, global = 3.89712e-07, cumulative = -0.00095537
ExecutionTime = 517.874 s  ClockTime = 517 s

Time = 468s

diagonalPBiCGStab:  Solving for Ux, Initial residual = 0.00956527, Final residual = 0.000803599, No Iterations 5
diagonalPBiCGStab:  Solving for Uy, Initial residual = 0.0105145, Final residual = 0.000576542, No Iterations 5
diagonalPBiCGStab:  Solving for Uz, Initial residual = 0.00875873, Final residual = 0.000663776, No Iterations 4
GAMG:  Solving for p, Initial residual = 0.151624, Final residual = 0.00688889, No Iterations 2
time step continuity errors : sum local = 0.000165129, global = 2.85048e-06, cumulative = -0.00095252
ExecutionTime = 518.985 s  ClockTime = 519 s

Time = 469s

diagonalPBiCGStab:  Solving for Ux, Initial residual = 0.00962568, Final residual = 0.000485194, No Iterations 5
diagonalPBiCGStab:  Solving for Uy, Initial residual = 0.0105382, Final residual = 0.000269811, No Iterations 7
diagonalPBiCGStab:  Solving for Uz, Initial residual = 0.00878868, Final residual = 0.00045956, No Iterations 5
GAMG:  Solving for p, Initial residual = 0.151187, Final residual = 0.00683145, No Iterations 2
time step continuity errors : sum local = 0.000165817, global = 4.40078e-06, cumulative = -0.000948119
ExecutionTime = 520.167 s  ClockTime = 520 s

Time = 470s

diagonalPBiCGStab:  Solving for Ux, Initial residual = 0.00966915, Final residual = 0.000498703, No Iterations 5
diagonalPBiCGStab:  Solving for Uy, Initial residual = 0.0105682, Final residual = 0.000568574, No Iterations 5
diagonalPBiCGStab:  Solving for Uz, Initial residual = 0.00881528, Final residual = 0.000819733, No Iterations 5
GAMG:  Solving for p, Initial residual = 0.151404, Final residual = 0.00670612, No Iterations 2
time step continuity errors : sum local = 0.000164918, global = 2.53627e-06, cumulative = -0.000945583
ExecutionTime = 521.301 s  ClockTime = 521 s

Time = 471s

diagonalPBiCGStab:  Solving for Ux, Initial residual = 0.00976664, Final residual = 0.000510013, No Iterations 5
diagonalPBiCGStab:  Solving for Uy, Initial residual = 0.0106371, Final residual = 0.000537478, No Iterations 5
diagonalPBiCGStab:  Solving for Uz, Initial residual = 0.00887524, Final residual = 0.000738688, No Iterations 4
GAMG:  Solving for p, Initial residual = 0.151966, Final residual = 0.0071895, No Iterations 2
time step continuity errors : sum local = 0.000179619, global = -3.20828e-06, cumulative = -0.000948791
ExecutionTime = 522.426 s  ClockTime = 522 s

Time = 472s

diagonalPBiCGStab:  Solving for Ux, Initial residual = 0.0100222, Final residual = 0.000913084, No Iterations 4
diagonalPBiCGStab:  Solving for Uy, Initial residual = 0.0107511, Final residual = 0.00054433, No Iterations 5
diagonalPBiCGStab:  Solving for Uz, Initial residual = 0.008916, Final residual = 0.000471699, No Iterations 5
GAMG:  Solving for p, Initial residual = 0.152472, Final residual = 0.00701795, No Iterations 2
time step continuity errors : sum local = 0.000179032, global = 8.04091e-07, cumulative = -0.000947987
ExecutionTime = 523.542 s  ClockTime = 523 s

Time = 473s

diagonalPBiCGStab:  Solving for Ux, Initial residual = 0.0102255, Final residual = 0.000745689, No Iterations 5
diagonalPBiCGStab:  Solving for Uy, Initial residual = 0.0108121, Final residual = 0.000537525, No Iterations 5
diagonalPBiCGStab:  Solving for Uz, Initial residual = 0.00891041, Final residual = 0.00071253, No Iterations 5
GAMG:  Solving for p, Initial residual = 0.151863, Final residual = 0.00592387, No Iterations 2
time step continuity errors : sum local = 0.000153921, global = 9.50415e-07, cumulative = -0.000947036
ExecutionTime = 524.655 s  ClockTime = 524 s

Time = 474s

diagonalPBiCGStab:  Solving for Ux, Initial residual = 0.0101299, Final residual = 0.000499601, No Iterations 5
diagonalPBiCGStab:  Solving for Uy, Initial residual = 0.010712, Final residual = 0.00052426, No Iterations 5
diagonalPBiCGStab:  Solving for Uz, Initial residual = 0.00891296, Final residual = 0.000676772, No Iterations 4
GAMG:  Solving for p, Initial residual = 0.151375, Final residual = 0.00633336, No Iterations 2
time step continuity errors : sum local = 0.000166576, global = -2.34071e-06, cumulative = -0.000949377
ExecutionTime = 525.751 s  ClockTime = 525 s

Time = 475s

diagonalPBiCGStab:  Solving for Ux, Initial residual = 0.0100713, Final residual = 0.000486407, No Iterations 5
diagonalPBiCGStab:  Solving for Uy, Initial residual = 0.0106479, Final residual = 0.000696683, No Iterations 5
diagonalPBiCGStab:  Solving for Uz, Initial residual = 0.00892199, Final residual = 0.000454734, No Iterations 5
GAMG:  Solving for p, Initial residual = 0.150648, Final residual = 0.00686626, No Iterations 2
time step continuity errors : sum local = 0.000182494, global = -3.97525e-06, cumulative = -0.000953352
ExecutionTime = 526.886 s  ClockTime = 526 s

Time = 476s

diagonalPBiCGStab:  Solving for Ux, Initial residual = 0.00999373, Final residual = 0.000577275, No Iterations 5
diagonalPBiCGStab:  Solving for Uy, Initial residual = 0.0106127, Final residual = 0.00079936, No Iterations 5
diagonalPBiCGStab:  Solving for Uz, Initial residual = 0.0089138, Final residual = 0.000722249, No Iterations 5
GAMG:  Solving for p, Initial residual = 0.150307, Final residual = 0.00717194, No Iterations 2
time step continuity errors : sum local = 0.000192653, global = -4.62961e-06, cumulative = -0.000957982
ExecutionTime = 528.013 s  ClockTime = 528 s

Time = 477s

diagonalPBiCGStab:  Solving for Ux, Initial residual = 0.00984739, Final residual = 0.000220099, No Iterations 7
diagonalPBiCGStab:  Solving for Uy, Initial residual = 0.0106129, Final residual = 0.000569824, No Iterations 5
diagonalPBiCGStab:  Solving for Uz, Initial residual = 0.00895911, Final residual = 0.000688312, No Iterations 4
GAMG:  Solving for p, Initial residual = 0.150507, Final residual = 0.00740944, No Iterations 2
time step continuity errors : sum local = 0.000200933, global = -3.53062e-06, cumulative = -0.000961513
ExecutionTime = 529.159 s  ClockTime = 529 s

Time = 478s

diagonalPBiCGStab:  Solving for Ux, Initial residual = 0.00964576, Final residual = 0.000831143, No Iterations 4
diagonalPBiCGStab:  Solving for Uy, Initial residual = 0.010597, Final residual = 0.000551149, No Iterations 5
diagonalPBiCGStab:  Solving for Uz, Initial residual = 0.00895995, Final residual = 0.000458329, No Iterations 5
GAMG:  Solving for p, Initial residual = 0.151609, Final residual = 0.00683244, No Iterations 2
time step continuity errors : sum local = 0.000186539, global = -3.21404e-06, cumulative = -0.000964727
ExecutionTime = 530.278 s  ClockTime = 530 s

Time = 479s

diagonalPBiCGStab:  Solving for Ux, Initial residual = 0.0094731, Final residual = 0.000649447, No Iterations 5
diagonalPBiCGStab:  Solving for Uy, Initial residual = 0.0105695, Final residual = 0.000534336, No Iterations 5
diagonalPBiCGStab:  Solving for Uz, Initial residual = 0.00890318, Final residual = 0.000708116, No Iterations 5
GAMG:  Solving for p, Initial residual = 0.151988, Final residual = 0.00587276, No Iterations 2
time step continuity errors : sum local = 0.000161465, global = -2.32633e-06, cumulative = -0.000967053
ExecutionTime = 531.424 s  ClockTime = 531 s

Time = 480s

diagonalPBiCGStab:  Solving for Ux, Initial residual = 0.0093589, Final residual = 0.000485137, No Iterations 5
diagonalPBiCGStab:  Solving for Uy, Initial residual = 0.0104996, Final residual = 0.000522542, No Iterations 5
diagonalPBiCGStab:  Solving for Uz, Initial residual = 0.00887931, Final residual = 0.000697803, No Iterations 4
GAMG:  Solving for p, Initial residual = 0.151018, Final residual = 0.00611793, No Iterations 2
time step continuity errors : sum local = 0.000170045, global = 2.96971e-06, cumulative = -0.000964083
ExecutionTime = 532.546 s  ClockTime = 532 s

Time = 481s

diagonalPBiCGStab:  Solving for Ux, Initial residual = 0.00934366, Final residual = 0.000484635, No Iterations 5
diagonalPBiCGStab:  Solving for Uy, Initial residual = 0.0104932, Final residual = 0.000534566, No Iterations 5
diagonalPBiCGStab:  Solving for Uz, Initial residual = 0.00883015, Final residual = 0.000446415, No Iterations 5
GAMG:  Solving for p, Initial residual = 0.149439, Final residual = 0.0065687, No Iterations 2
time step continuity errors : sum local = 0.000185095, global = 4.17286e-06, cumulative = -0.00095991
ExecutionTime = 533.675 s  ClockTime = 533 s

Time = 482s

diagonalPBiCGStab:  Solving for Ux, Initial residual = 0.00947188, Final residual = 0.000531667, No Iterations 5
diagonalPBiCGStab:  Solving for Uy, Initial residual = 0.0105729, Final residual = 0.000552168, No Iterations 5
diagonalPBiCGStab:  Solving for Uz, Initial residual = 0.00877539, Final residual = 0.000501269, No Iterations 5
GAMG:  Solving for p, Initial residual = 0.148095, Final residual = 0.00858624, No Iterations 2
time step continuity errors : sum local = 0.000246645, global = -5.8491e-06, cumulative = -0.000965759
ExecutionTime = 534.787 s  ClockTime = 534 s

Time = 483s

diagonalPBiCGStab:  Solving for Ux, Initial residual = 0.0100398, Final residual = 0.000224745, No Iterations 7
diagonalPBiCGStab:  Solving for Uy, Initial residual = 0.01071, Final residual = 0.000992905, No Iterations 5
diagonalPBiCGStab:  Solving for Uz, Initial residual = 0.00880267, Final residual = 0.000864397, No Iterations 4
GAMG:  Solving for p, Initial residual = 0.146444, Final residual = 0.0105756, No Iterations 2
time step continuity errors : sum local = 0.000313845, global = 2.98227e-07, cumulative = -0.000965461
ExecutionTime = 535.929 s  ClockTime = 536 s

Time = 484s

diagonalPBiCGStab:  Solving for Ux, Initial residual = 0.0110165, Final residual = 0.000981234, No Iterations 4
diagonalPBiCGStab:  Solving for Uy, Initial residual = 0.0108389, Final residual = 0.000977943, No Iterations 4
diagonalPBiCGStab:  Solving for Uz, Initial residual = 0.00886111, Final residual = 0.000461875, No Iterations 5
GAMG:  Solving for p, Initial residual = 0.145338, Final residual = 0.0109049, No Iterations 2
time step continuity errors : sum local = 0.000337567, global = -1.1771e-05, cumulative = -0.000977232
ExecutionTime = 537.024 s  ClockTime = 537 s

Time = 485s

diagonalPBiCGStab:  Solving for Ux, Initial residual = 0.0121148, Final residual = 0.000778902, No Iterations 5
diagonalPBiCGStab:  Solving for Uy, Initial residual = 0.0108933, Final residual = 0.00054432, No Iterations 5
diagonalPBiCGStab:  Solving for Uz, Initial residual = 0.00882766, Final residual = 0.000470819, No Iterations 5
GAMG:  Solving for p, Initial residual = 0.144607, Final residual = 0.00875347, No Iterations 2
time step continuity errors : sum local = 0.00028162, global = -1.15721e-05, cumulative = -0.000988804
ExecutionTime = 538.154 s  ClockTime = 538 s

Time = 486s

diagonalPBiCGStab:  Solving for Ux, Initial residual = 0.0127867, Final residual = 0.000565526, No Iterations 5
diagonalPBiCGStab:  Solving for Uy, Initial residual = 0.010859, Final residual = 0.000536883, No Iterations 5
diagonalPBiCGStab:  Solving for Uz, Initial residual = 0.00874642, Final residual = 0.000847116, No Iterations 4
GAMG:  Solving for p, Initial residual = 0.143838, Final residual = 0.00559019, No Iterations 2
time step continuity errors : sum local = 0.000185048, global = 8.92481e-07, cumulative = -0.000987912
ExecutionTime = 539.241 s  ClockTime = 539 s

Time = 487s

diagonalPBiCGStab:  Solving for Ux, Initial residual = 0.0127248, Final residual = 0.000539706, No Iterations 5
diagonalPBiCGStab:  Solving for Uy, Initial residual = 0.0107791, Final residual = 0.00051552, No Iterations 5
diagonalPBiCGStab:  Solving for Uz, Initial residual = 0.00870086, Final residual = 0.000457974, No Iterations 5
GAMG:  Solving for p, Initial residual = 0.142033, Final residual = 0.00587395, No Iterations 2
time step continuity errors : sum local = 0.000197056, global = 5.28229e-06, cumulative = -0.00098263
ExecutionTime = 540.37 s  ClockTime = 540 s

Time = 488s

diagonalPBiCGStab:  Solving for Ux, Initial residual = 0.0125679, Final residual = 0.000648812, No Iterations 5
diagonalPBiCGStab:  Solving for Uy, Initial residual = 0.0107236, Final residual = 0.000507294, No Iterations 5
diagonalPBiCGStab:  Solving for Uz, Initial residual = 0.00865517, Final residual = 0.000442298, No Iterations 5
GAMG:  Solving for p, Initial residual = 0.140765, Final residual = 0.00634177, No Iterations 2
time step continuity errors : sum local = 0.000214948, global = 1.14301e-05, cumulative = -0.000971199
ExecutionTime = 541.482 s  ClockTime = 541 s

Time = 489s

diagonalPBiCGStab:  Solving for Ux, Initial residual = 0.0123808, Final residual = 0.000260077, No Iterations 7
diagonalPBiCGStab:  Solving for Uy, Initial residual = 0.0107377, Final residual = 0.00104248, No Iterations 4
diagonalPBiCGStab:  Solving for Uz, Initial residual = 0.00863895, Final residual = 0.000820943, No Iterations 4
GAMG:  Solving for p, Initial residual = 0.139243, Final residual = 0.00676203, No Iterations 2
time step continuity errors : sum local = 0.000231783, global = 1.84344e-05, cumulative = -0.000952765
ExecutionTime = 542.603 s  ClockTime = 542 s

Time = 490s

diagonalPBiCGStab:  Solving for Ux, Initial residual = 0.0122184, Final residual = 0.00084896, No Iterations 4
diagonalPBiCGStab:  Solving for Uy, Initial residual = 0.0108399, Final residual = 0.000532711, No Iterations 5
diagonalPBiCGStab:  Solving for Uz, Initial residual = 0.00868161, Final residual = 0.000460192, No Iterations 5
GAMG:  Solving for p, Initial residual = 0.138345, Final residual = 0.00726868, No Iterations 2
time step continuity errors : sum local = 0.000252821, global = 1.29973e-05, cumulative = -0.000939768
ExecutionTime = 543.724 s  ClockTime = 543 s

Time = 491s

diagonalPBiCGStab:  Solving for Ux, Initial residual = 0.0122942, Final residual = 0.000988127, No Iterations 5
diagonalPBiCGStab:  Solving for Uy, Initial residual = 0.0109474, Final residual = 0.000484668, No Iterations 5
diagonalPBiCGStab:  Solving for Uz, Initial residual = 0.00869994, Final residual = 0.000491443, No Iterations 5
GAMG:  Solving for p, Initial residual = 0.137464, Final residual = 0.00712645, No Iterations 2
time step continuity errors : sum local = 0.000253094, global = 1.90117e-06, cumulative = -0.000937866
ExecutionTime = 544.856 s  ClockTime = 544 s

Time = 492s

diagonalPBiCGStab:  Solving for Ux, Initial residual = 0.0127296, Final residual = 0.000608408, No Iterations 5
diagonalPBiCGStab:  Solving for Uy, Initial residual = 0.0110346, Final residual = 0.000492787, No Iterations 5
diagonalPBiCGStab:  Solving for Uz, Initial residual = 0.00869523, Final residual = 0.000836503, No Iterations 4
GAMG:  Solving for p, Initial residual = 0.135639, Final residual = 0.00612542, No Iterations 2
time step continuity errors : sum local = 0.000223844, global = -1.1729e-06, cumulative = -0.000939039
ExecutionTime = 545.97 s  ClockTime = 546 s

Time = 493s

diagonalPBiCGStab:  Solving for Ux, Initial residual = 0.0131569, Final residual = 0.00057194, No Iterations 5
diagonalPBiCGStab:  Solving for Uy, Initial residual = 0.0110069, Final residual = 0.000484507, No Iterations 5
diagonalPBiCGStab:  Solving for Uz, Initial residual = 0.00870865, Final residual = 0.000451906, No Iterations 5
GAMG:  Solving for p, Initial residual = 0.133604, Final residual = 0.00542072, No Iterations 2
time step continuity errors : sum local = 0.000203269, global = 1.41408e-06, cumulative = -0.000937625
ExecutionTime = 547.103 s  ClockTime = 547 s

Time = 494s

diagonalPBiCGStab:  Solving for Ux, Initial residual = 0.0133158, Final residual = 0.000577485, No Iterations 5
diagonalPBiCGStab:  Solving for Uy, Initial residual = 0.0109158, Final residual = 0.000540493, No Iterations 5
diagonalPBiCGStab:  Solving for Uz, Initial residual = 0.00866712, Final residual = 0.000430596, No Iterations 5
GAMG:  Solving for p, Initial residual = 0.13235, Final residual = 0.00536846, No Iterations 2
time step continuity errors : sum local = 0.00020514, global = 2.26639e-06, cumulative = -0.000935359
ExecutionTime = 548.231 s  ClockTime = 548 s

Time = 495s

diagonalPBiCGStab:  Solving for Ux, Initial residual = 0.013149, Final residual = 0.000757183, No Iterations 5
diagonalPBiCGStab:  Solving for Uy, Initial residual = 0.0108089, Final residual = 0.000228662, No Iterations 7
diagonalPBiCGStab:  Solving for Uz, Initial residual = 0.00862406, Final residual = 0.000810798, No Iterations 4
GAMG:  Solving for p, Initial residual = 0.131909, Final residual = 0.00602312, No Iterations 2
time step continuity errors : sum local = 0.000233017, global = -1.01438e-06, cumulative = -0.000936373
ExecutionTime = 549.383 s  ClockTime = 549 s

Time = 496s

diagonalPBiCGStab:  Solving for Ux, Initial residual = 0.0129284, Final residual = 0.00114146, No Iterations 6
diagonalPBiCGStab:  Solving for Uy, Initial residual = 0.0107435, Final residual = 0.000501012, No Iterations 5
diagonalPBiCGStab:  Solving for Uz, Initial residual = 0.00862114, Final residual = 0.000444664, No Iterations 5
GAMG:  Solving for p, Initial residual = 0.133273, Final residual = 0.00669122, No Iterations 2
time step continuity errors : sum local = 0.000262038, global = 1.22263e-06, cumulative = -0.000935151
ExecutionTime = 550.535 s  ClockTime = 550 s

Time = 497s

diagonalPBiCGStab:  Solving for Ux, Initial residual = 0.0126698, Final residual = 0.000985247, No Iterations 4
diagonalPBiCGStab:  Solving for Uy, Initial residual = 0.0107712, Final residual = 0.000474667, No Iterations 5
diagonalPBiCGStab:  Solving for Uz, Initial residual = 0.00863871, Final residual = 0.000431742, No Iterations 5
GAMG:  Solving for p, Initial residual = 0.132665, Final residual = 0.0068024, No Iterations 2
time step continuity errors : sum local = 0.000269291, global = 7.71945e-06, cumulative = -0.000927431
ExecutionTime = 551.633 s  ClockTime = 551 s

Time = 498s

diagonalPBiCGStab:  Solving for Ux, Initial residual = 0.0123981, Final residual = 0.00118877, No Iterations 4
diagonalPBiCGStab:  Solving for Uy, Initial residual = 0.0107472, Final residual = 0.000493386, No Iterations 5
diagonalPBiCGStab:  Solving for Uz, Initial residual = 0.00862493, Final residual = 0.000807589, No Iterations 4
GAMG:  Solving for p, Initial residual = 0.133351, Final residual = 0.00651005, No Iterations 2
time step continuity errors : sum local = 0.000261028, global = 5.84572e-06, cumulative = -0.000921585
ExecutionTime = 552.729 s  ClockTime = 552 s

Time = 499s

diagonalPBiCGStab:  Solving for Ux, Initial residual = 0.0122109, Final residual = 0.000771055, No Iterations 5
diagonalPBiCGStab:  Solving for Uy, Initial residual = 0.0107786, Final residual = 0.00047951, No Iterations 5
diagonalPBiCGStab:  Solving for Uz, Initial residual = 0.008699, Final residual = 0.000446019, No Iterations 5
GAMG:  Solving for p, Initial residual = 0.132533, Final residual = 0.00581226, No Iterations 2
time step continuity errors : sum local = 0.000235718, global = 9.78797e-06, cumulative = -0.000911797
ExecutionTime = 553.861 s  ClockTime = 553 s

Time = 500s

diagonalPBiCGStab:  Solving for Ux, Initial residual = 0.0120169, Final residual = 0.000541152, No Iterations 5
diagonalPBiCGStab:  Solving for Uy, Initial residual = 0.0106643, Final residual = 0.000663082, No Iterations 5
diagonalPBiCGStab:  Solving for Uz, Initial residual = 0.00862919, Final residual = 0.000439687, No Iterations 5
GAMG:  Solving for p, Initial residual = 0.131583, Final residual = 0.00534825, No Iterations 2
time step continuity errors : sum local = 0.000220131, global = 1.24151e-05, cumulative = -0.000899382
ExecutionTime = 555.792 s  ClockTime = 555 s

End

