/*---------------------------------------------------------------------------*\
  =========                 |
  \\      /  F ield         | OpenFOAM: The Open Source CFD Toolbox
   \\    /   O peration     | Website:  https://openfoam.org
    \\  /    A nd           | Version:  11
     \\/     M anipulation  |
\*---------------------------------------------------------------------------*/
Build  : 11
Exec   : foamRun
Date   : Nov 01 2024
Time   : 02:32:39
Host   : "skynet-linux"
PID    : 33103
I/O    : uncollated
Case   : /home/humberto/casesXCALibre/BFS_3D_5mm_OF11
nProcs : 1
sigFpe : Enabling floating point exception trapping (FOAM_SIGFPE).
fileModificationChecking : Monitoring run-time modified files using timeStampMaster (fileModificationSkew 10)
allowSystemOperations : Allowing user-supplied system call operations

// * * * * * * * * * * * * * * * * * * * * * * * * * * * * * * * * * * * * * //
Create time

Create mesh for time = 0

Selecting solver incompressibleFluid
Selecting viscosity model constant
Selecting turbulence model type laminar
Selecting laminar stress model Stokes
No MRF models present


SIMPLE: Convergence criteria found
        p: tolerance 1e-07
        U: tolerance 1e-07
        "(k|epsilon|omega|f|v2)": tolerance 1e-07


SIMPLE: Operating solver in steady-state mode with 1 outer corrector
SIMPLE: Operating solver in SIMPLE mode



Starting time loop

Time = 1s

diagonalPBiCGStab:  Solving for Ux, Initial residual = 1, Final residual = 0.0793449, No Iterations 9
diagonalPBiCGStab:  Solving for Uy, Initial residual = 1, Final residual = 0.0995826, No Iterations 3
diagonalPBiCGStab:  Solving for Uz, Initial residual = 1, Final residual = 0.0757627, No Iterations 3
diagonalPCG:  Solving for p, Initial residual = 1, Final residual = 0.0987099, No Iterations 855
time step continuity errors : sum local = 2.78439e-05, global = 9.84176e-08, cumulative = 9.84176e-08
ExecutionTime = 12.1473 s  ClockTime = 12 s

Time = 2s

diagonalPBiCGStab:  Solving for Ux, Initial residual = 0.878753, Final residual = 0.0565028, No Iterations 3
diagonalPBiCGStab:  Solving for Uy, Initial residual = 0.448002, Final residual = 0.0380757, No Iterations 5
diagonalPBiCGStab:  Solving for Uz, Initial residual = 0.380699, Final residual = 0.028718, No Iterations 5
diagonalPCG:  Solving for p, Initial residual = 0.211198, Final residual = 0.0208262, No Iterations 555
time step continuity errors : sum local = 0.0017936, global = -2.1085e-05, cumulative = -2.09866e-05
ExecutionTime = 19.6628 s  ClockTime = 19 s

Time = 3s

diagonalPBiCGStab:  Solving for Ux, Initial residual = 0.269018, Final residual = 0.0236616, No Iterations 5
diagonalPBiCGStab:  Solving for Uy, Initial residual = 0.391212, Final residual = 0.0366398, No Iterations 5
diagonalPBiCGStab:  Solving for Uz, Initial residual = 0.501886, Final residual = 0.041455, No Iterations 4
diagonalPCG:  Solving for p, Initial residual = 0.310924, Final residual = 0.0303469, No Iterations 773
time step continuity errors : sum local = 0.000527224, global = 5.07341e-06, cumulative = -1.59132e-05
ExecutionTime = 29.8007 s  ClockTime = 29 s

Time = 4s

diagonalPBiCGStab:  Solving for Ux, Initial residual = 0.513445, Final residual = 0.0426943, No Iterations 3
diagonalPBiCGStab:  Solving for Uy, Initial residual = 0.323808, Final residual = 0.0319913, No Iterations 5
diagonalPBiCGStab:  Solving for Uz, Initial residual = 0.386343, Final residual = 0.0332089, No Iterations 3
diagonalPCG:  Solving for p, Initial residual = 0.263234, Final residual = 0.0262242, No Iterations 122
time step continuity errors : sum local = 0.00137966, global = 1.95471e-05, cumulative = 3.63393e-06
ExecutionTime = 32.1777 s  ClockTime = 32 s

Time = 5s

diagonalPBiCGStab:  Solving for Ux, Initial residual = 0.613145, Final residual = 0.0470748, No Iterations 3
diagonalPBiCGStab:  Solving for Uy, Initial residual = 0.235814, Final residual = 0.0213446, No Iterations 5
diagonalPBiCGStab:  Solving for Uz, Initial residual = 0.166058, Final residual = 0.0123807, No Iterations 4
diagonalPCG:  Solving for p, Initial residual = 0.270783, Final residual = 0.0265417, No Iterations 551
time step continuity errors : sum local = 0.00136294, global = -1.6031e-06, cumulative = 2.03083e-06
ExecutionTime = 39.6219 s  ClockTime = 39 s

Time = 6s

diagonalPBiCGStab:  Solving for Ux, Initial residual = 0.316969, Final residual = 0.024375, No Iterations 5
diagonalPBiCGStab:  Solving for Uy, Initial residual = 0.453459, Final residual = 0.0340077, No Iterations 5
diagonalPBiCGStab:  Solving for Uz, Initial residual = 0.490906, Final residual = 0.0427965, No Iterations 5
diagonalPCG:  Solving for p, Initial residual = 0.635434, Final residual = 0.0629294, No Iterations 757
time step continuity errors : sum local = 0.000667886, global = -4.50158e-06, cumulative = -2.47074e-06
ExecutionTime = 49.5457 s  ClockTime = 49 s

Time = 7s

diagonalPBiCGStab:  Solving for Ux, Initial residual = 0.662123, Final residual = 0.062807, No Iterations 3
diagonalPBiCGStab:  Solving for Uy, Initial residual = 0.304154, Final residual = 0.0241906, No Iterations 5
diagonalPBiCGStab:  Solving for Uz, Initial residual = 0.368045, Final residual = 0.0295539, No Iterations 5
diagonalPCG:  Solving for p, Initial residual = 0.299221, Final residual = 0.0296941, No Iterations 347
time step continuity errors : sum local = 0.000869187, global = -6.36178e-05, cumulative = -6.60885e-05
ExecutionTime = 54.5758 s  ClockTime = 54 s

Time = 8s

diagonalPBiCGStab:  Solving for Ux, Initial residual = 0.686707, Final residual = 0.0515562, No Iterations 3
diagonalPBiCGStab:  Solving for Uy, Initial residual = 0.282563, Final residual = 0.020647, No Iterations 5
diagonalPBiCGStab:  Solving for Uz, Initial residual = 0.211895, Final residual = 0.00727568, No Iterations 6
diagonalPCG:  Solving for p, Initial residual = 0.324965, Final residual = 0.0324874, No Iterations 651
time step continuity errors : sum local = 0.000854431, global = -4.46899e-06, cumulative = -7.05575e-05
ExecutionTime = 63.2485 s  ClockTime = 63 s

Time = 9s

diagonalPBiCGStab:  Solving for Ux, Initial residual = 0.302534, Final residual = 0.0280666, No Iterations 4
diagonalPBiCGStab:  Solving for Uy, Initial residual = 0.354846, Final residual = 0.0351223, No Iterations 5
diagonalPBiCGStab:  Solving for Uz, Initial residual = 0.430094, Final residual = 0.0404361, No Iterations 4
diagonalPCG:  Solving for p, Initial residual = 0.342996, Final residual = 0.0337498, No Iterations 761
time step continuity errors : sum local = 0.000595196, global = 5.82472e-06, cumulative = -6.47328e-05
ExecutionTime = 73.2608 s  ClockTime = 73 s

Time = 10s

diagonalPBiCGStab:  Solving for Ux, Initial residual = 0.426297, Final residual = 0.042345, No Iterations 3
diagonalPBiCGStab:  Solving for Uy, Initial residual = 0.209238, Final residual = 0.0192048, No Iterations 5
diagonalPBiCGStab:  Solving for Uz, Initial residual = 0.258024, Final residual = 0.0256333, No Iterations 5
diagonalPCG:  Solving for p, Initial residual = 0.261909, Final residual = 0.0259073, No Iterations 716
time step continuity errors : sum local = 0.000842681, global = 3.53913e-06, cumulative = -6.11937e-05
ExecutionTime = 82.6856 s  ClockTime = 82 s

Time = 11s

diagonalPBiCGStab:  Solving for Ux, Initial residual = 0.275343, Final residual = 0.0191907, No Iterations 4
diagonalPBiCGStab:  Solving for Uy, Initial residual = 0.284876, Final residual = 0.00978823, No Iterations 6
diagonalPBiCGStab:  Solving for Uz, Initial residual = 0.258962, Final residual = 0.0223985, No Iterations 5
diagonalPCG:  Solving for p, Initial residual = 0.31678, Final residual = 0.0315373, No Iterations 703
time step continuity errors : sum local = 0.000554624, global = 5.84633e-06, cumulative = -5.53474e-05
ExecutionTime = 92.0154 s  ClockTime = 92 s

Time = 12s

diagonalPBiCGStab:  Solving for Ux, Initial residual = 0.473241, Final residual = 0.0333463, No Iterations 4
diagonalPBiCGStab:  Solving for Uy, Initial residual = 0.354251, Final residual = 0.0331092, No Iterations 5
diagonalPBiCGStab:  Solving for Uz, Initial residual = 0.389874, Final residual = 0.0253804, No Iterations 5
diagonalPCG:  Solving for p, Initial residual = 0.339565, Final residual = 0.0338515, No Iterations 344
time step continuity errors : sum local = 0.000668514, global = 3.91699e-05, cumulative = -1.61775e-05
ExecutionTime = 97.077 s  ClockTime = 97 s

Time = 13s

diagonalPBiCGStab:  Solving for Ux, Initial residual = 0.590179, Final residual = 0.0547531, No Iterations 4
diagonalPBiCGStab:  Solving for Uy, Initial residual = 0.19166, Final residual = 0.0158847, No Iterations 5
diagonalPBiCGStab:  Solving for Uz, Initial residual = 0.227867, Final residual = 0.0220423, No Iterations 4
diagonalPCG:  Solving for p, Initial residual = 0.338349, Final residual = 0.0335588, No Iterations 620
time step continuity errors : sum local = 0.000582225, global = -4.81039e-06, cumulative = -2.09879e-05
ExecutionTime = 105.447 s  ClockTime = 105 s

Time = 14s

diagonalPBiCGStab:  Solving for Ux, Initial residual = 0.288966, Final residual = 0.0250806, No Iterations 4
diagonalPBiCGStab:  Solving for Uy, Initial residual = 0.262393, Final residual = 0.0196214, No Iterations 5
diagonalPBiCGStab:  Solving for Uz, Initial residual = 0.29709, Final residual = 0.0246311, No Iterations 4
diagonalPCG:  Solving for p, Initial residual = 0.531487, Final residual = 0.0519994, No Iterations 698
time step continuity errors : sum local = 0.000412165, global = 4.86968e-07, cumulative = -2.05009e-05
ExecutionTime = 114.66 s  ClockTime = 114 s

Time = 15s

diagonalPBiCGStab:  Solving for Ux, Initial residual = 0.225583, Final residual = 0.0167915, No Iterations 4
diagonalPBiCGStab:  Solving for Uy, Initial residual = 0.247516, Final residual = 0.0236385, No Iterations 5
diagonalPBiCGStab:  Solving for Uz, Initial residual = 0.307476, Final residual = 0.0107806, No Iterations 7
diagonalPCG:  Solving for p, Initial residual = 0.360236, Final residual = 0.0359758, No Iterations 317
time step continuity errors : sum local = 0.000445578, global = -2.05876e-06, cumulative = -2.25597e-05
ExecutionTime = 119.427 s  ClockTime = 119 s

Time = 16s

diagonalPBiCGStab:  Solving for Ux, Initial residual = 0.187965, Final residual = 0.0175152, No Iterations 3
diagonalPBiCGStab:  Solving for Uy, Initial residual = 0.152768, Final residual = 0.0120124, No Iterations 5
diagonalPBiCGStab:  Solving for Uz, Initial residual = 0.209299, Final residual = 0.0127069, No Iterations 6
diagonalPCG:  Solving for p, Initial residual = 0.358835, Final residual = 0.0358355, No Iterations 743
time step continuity errors : sum local = 0.000413902, global = -2.34248e-06, cumulative = -2.49021e-05
ExecutionTime = 129.158 s  ClockTime = 129 s

Time = 17s

diagonalPBiCGStab:  Solving for Ux, Initial residual = 0.16994, Final residual = 0.0168839, No Iterations 4
diagonalPBiCGStab:  Solving for Uy, Initial residual = 0.201196, Final residual = 0.0152142, No Iterations 5
diagonalPBiCGStab:  Solving for Uz, Initial residual = 0.255207, Final residual = 0.0186996, No Iterations 5
diagonalPCG:  Solving for p, Initial residual = 0.669131, Final residual = 0.066454, No Iterations 639
time step continuity errors : sum local = 0.000354406, global = -3.46873e-06, cumulative = -2.83709e-05
ExecutionTime = 137.708 s  ClockTime = 137 s

Time = 18s

diagonalPBiCGStab:  Solving for Ux, Initial residual = 0.358712, Final residual = 0.0285147, No Iterations 3
diagonalPBiCGStab:  Solving for Uy, Initial residual = 0.196146, Final residual = 0.0172563, No Iterations 5
diagonalPBiCGStab:  Solving for Uz, Initial residual = 0.245176, Final residual = 0.0181873, No Iterations 5
diagonalPCG:  Solving for p, Initial residual = 0.373357, Final residual = 0.0372863, No Iterations 279
time step continuity errors : sum local = 0.000404388, global = -5.8554e-06, cumulative = -3.42263e-05
ExecutionTime = 141.952 s  ClockTime = 142 s

Time = 19s

diagonalPBiCGStab:  Solving for Ux, Initial residual = 0.383148, Final residual = 0.0339378, No Iterations 3
diagonalPBiCGStab:  Solving for Uy, Initial residual = 0.144465, Final residual = 0.0138981, No Iterations 5
diagonalPBiCGStab:  Solving for Uz, Initial residual = 0.194297, Final residual = 0.0166721, No Iterations 5
diagonalPCG:  Solving for p, Initial residual = 0.35858, Final residual = 0.0354013, No Iterations 751
time step continuity errors : sum local = 0.000349024, global = -3.65941e-07, cumulative = -3.45922e-05
ExecutionTime = 151.799 s  ClockTime = 151 s

Time = 20s

diagonalPBiCGStab:  Solving for Ux, Initial residual = 0.174078, Final residual = 0.0171602, No Iterations 4
diagonalPBiCGStab:  Solving for Uy, Initial residual = 0.187274, Final residual = 0.0185254, No Iterations 4
diagonalPBiCGStab:  Solving for Uz, Initial residual = 0.253551, Final residual = 0.024465, No Iterations 6
diagonalPCG:  Solving for p, Initial residual = 0.591567, Final residual = 0.0587913, No Iterations 246
time step continuity errors : sum local = 0.000284992, global = -3.16536e-05, cumulative = -6.62458e-05
ExecutionTime = 155.686 s  ClockTime = 155 s

Time = 21s

diagonalPBiCGStab:  Solving for Ux, Initial residual = 0.128424, Final residual = 0.00774529, No Iterations 5
diagonalPBiCGStab:  Solving for Uy, Initial residual = 0.132091, Final residual = 0.0131815, No Iterations 5
diagonalPBiCGStab:  Solving for Uz, Initial residual = 0.186362, Final residual = 0.0166034, No Iterations 5
diagonalPCG:  Solving for p, Initial residual = 0.59504, Final residual = 0.0590371, No Iterations 303
time step continuity errors : sum local = 0.000281986, global = -2.39616e-05, cumulative = -9.02075e-05
ExecutionTime = 160.249 s  ClockTime = 160 s

Time = 22s

diagonalPBiCGStab:  Solving for Ux, Initial residual = 0.112105, Final residual = 0.00943699, No Iterations 4
diagonalPBiCGStab:  Solving for Uy, Initial residual = 0.111294, Final residual = 0.00849522, No Iterations 5
diagonalPBiCGStab:  Solving for Uz, Initial residual = 0.171548, Final residual = 0.0133663, No Iterations 5
diagonalPCG:  Solving for p, Initial residual = 0.599926, Final residual = 0.0597882, No Iterations 269
time step continuity errors : sum local = 0.000258307, global = -4.66744e-06, cumulative = -9.48749e-05
ExecutionTime = 164.423 s  ClockTime = 164 s

Time = 23s

diagonalPBiCGStab:  Solving for Ux, Initial residual = 0.126093, Final residual = 0.00955255, No Iterations 4
diagonalPBiCGStab:  Solving for Uy, Initial residual = 0.128832, Final residual = 0.00821552, No Iterations 5
diagonalPBiCGStab:  Solving for Uz, Initial residual = 0.1529, Final residual = 0.0150891, No Iterations 4
diagonalPCG:  Solving for p, Initial residual = 0.584561, Final residual = 0.0579626, No Iterations 207
time step continuity errors : sum local = 0.000243587, global = 8.14258e-06, cumulative = -8.67323e-05
ExecutionTime = 167.802 s  ClockTime = 167 s

Time = 24s

diagonalPBiCGStab:  Solving for Ux, Initial residual = 0.128882, Final residual = 0.0117309, No Iterations 4
diagonalPBiCGStab:  Solving for Uy, Initial residual = 0.108753, Final residual = 0.00783166, No Iterations 5
diagonalPBiCGStab:  Solving for Uz, Initial residual = 0.144201, Final residual = 0.0133114, No Iterations 5
diagonalPCG:  Solving for p, Initial residual = 0.550486, Final residual = 0.0550436, No Iterations 327
time step continuity errors : sum local = 0.000235999, global = 2.82486e-05, cumulative = -5.84837e-05
ExecutionTime = 172.602 s  ClockTime = 172 s

Time = 25s

diagonalPBiCGStab:  Solving for Ux, Initial residual = 0.0935884, Final residual = 0.00849714, No Iterations 4
diagonalPBiCGStab:  Solving for Uy, Initial residual = 0.103476, Final residual = 0.00972913, No Iterations 4
diagonalPBiCGStab:  Solving for Uz, Initial residual = 0.154538, Final residual = 0.0130805, No Iterations 5
diagonalPCG:  Solving for p, Initial residual = 0.535597, Final residual = 0.0534475, No Iterations 699
time step continuity errors : sum local = 0.000202065, global = -8.63969e-07, cumulative = -5.93477e-05
ExecutionTime = 181.806 s  ClockTime = 181 s

Time = 26s

diagonalPBiCGStab:  Solving for Ux, Initial residual = 0.248256, Final residual = 0.0199034, No Iterations 3
diagonalPBiCGStab:  Solving for Uy, Initial residual = 0.128472, Final residual = 0.0124001, No Iterations 4
diagonalPBiCGStab:  Solving for Uz, Initial residual = 0.171988, Final residual = 0.0152001, No Iterations 5
diagonalPCG:  Solving for p, Initial residual = 0.351946, Final residual = 0.0348089, No Iterations 196
time step continuity errors : sum local = 0.000237795, global = 3.19586e-06, cumulative = -5.61518e-05
ExecutionTime = 185.065 s  ClockTime = 185 s

Time = 27s

diagonalPBiCGStab:  Solving for Ux, Initial residual = 0.238638, Final residual = 0.0198899, No Iterations 3
diagonalPBiCGStab:  Solving for Uy, Initial residual = 0.0868657, Final residual = 0.00726127, No Iterations 4
diagonalPBiCGStab:  Solving for Uz, Initial residual = 0.109932, Final residual = 0.00960544, No Iterations 5
diagonalPCG:  Solving for p, Initial residual = 0.316502, Final residual = 0.0311422, No Iterations 708
time step continuity errors : sum local = 0.000215664, global = -1.08345e-06, cumulative = -5.72353e-05
ExecutionTime = 194.401 s  ClockTime = 194 s

Time = 28s

diagonalPBiCGStab:  Solving for Ux, Initial residual = 0.0843888, Final residual = 0.00667893, No Iterations 4
diagonalPBiCGStab:  Solving for Uy, Initial residual = 0.0804408, Final residual = 0.00730068, No Iterations 5
diagonalPBiCGStab:  Solving for Uz, Initial residual = 0.154768, Final residual = 0.012687, No Iterations 5
diagonalPCG:  Solving for p, Initial residual = 0.582312, Final residual = 0.0578818, No Iterations 720
time step continuity errors : sum local = 0.00016522, global = -3.15071e-06, cumulative = -6.0386e-05
ExecutionTime = 203.987 s  ClockTime = 204 s

Time = 29s

diagonalPBiCGStab:  Solving for Ux, Initial residual = 0.126862, Final residual = 0.0110257, No Iterations 3
diagonalPBiCGStab:  Solving for Uy, Initial residual = 0.0887692, Final residual = 0.00704411, No Iterations 5
diagonalPBiCGStab:  Solving for Uz, Initial residual = 0.125771, Final residual = 0.0123171, No Iterations 4
diagonalPCG:  Solving for p, Initial residual = 0.415396, Final residual = 0.041291, No Iterations 216
time step continuity errors : sum local = 0.000196181, global = 1.02614e-05, cumulative = -5.01246e-05
ExecutionTime = 207.458 s  ClockTime = 207 s

Time = 30s

diagonalPBiCGStab:  Solving for Ux, Initial residual = 0.125424, Final residual = 0.00997074, No Iterations 3
diagonalPBiCGStab:  Solving for Uy, Initial residual = 0.0644575, Final residual = 0.00581862, No Iterations 5
diagonalPBiCGStab:  Solving for Uz, Initial residual = 0.0994196, Final residual = 0.00856157, No Iterations 5
diagonalPCG:  Solving for p, Initial residual = 0.382227, Final residual = 0.0378169, No Iterations 715
time step continuity errors : sum local = 0.000177714, global = 3.13018e-06, cumulative = -4.69944e-05
ExecutionTime = 216.949 s  ClockTime = 217 s

Time = 31s

diagonalPBiCGStab:  Solving for Ux, Initial residual = 0.141859, Final residual = 0.0118077, No Iterations 4
diagonalPBiCGStab:  Solving for Uy, Initial residual = 0.08793, Final residual = 0.00767727, No Iterations 5
diagonalPBiCGStab:  Solving for Uz, Initial residual = 0.154399, Final residual = 0.0144848, No Iterations 5
diagonalPCG:  Solving for p, Initial residual = 0.335663, Final residual = 0.0333504, No Iterations 275
time step continuity errors : sum local = 0.000157263, global = 1.20225e-05, cumulative = -3.49719e-05
ExecutionTime = 221.171 s  ClockTime = 221 s

Time = 32s

diagonalPBiCGStab:  Solving for Ux, Initial residual = 0.158205, Final residual = 0.0147017, No Iterations 3
diagonalPBiCGStab:  Solving for Uy, Initial residual = 0.0751754, Final residual = 0.00650539, No Iterations 4
diagonalPBiCGStab:  Solving for Uz, Initial residual = 0.0914199, Final residual = 0.00769821, No Iterations 5
diagonalPCG:  Solving for p, Initial residual = 0.324287, Final residual = 0.0323413, No Iterations 90
time step continuity errors : sum local = 0.000154284, global = 9.38943e-07, cumulative = -3.4033e-05
ExecutionTime = 223.191 s  ClockTime = 223 s

Time = 33s

diagonalPBiCGStab:  Solving for Ux, Initial residual = 0.151432, Final residual = 0.0134035, No Iterations 3
diagonalPBiCGStab:  Solving for Uy, Initial residual = 0.0633659, Final residual = 0.00529523, No Iterations 4
diagonalPBiCGStab:  Solving for Uz, Initial residual = 0.0765224, Final residual = 0.006515, No Iterations 5
diagonalPCG:  Solving for p, Initial residual = 0.294178, Final residual = 0.0291477, No Iterations 713
time step continuity errors : sum local = 0.000142484, global = -1.2252e-06, cumulative = -3.52582e-05
ExecutionTime = 232.541 s  ClockTime = 232 s

Time = 34s

diagonalPBiCGStab:  Solving for Ux, Initial residual = 0.0508471, Final residual = 0.00445519, No Iterations 5
diagonalPBiCGStab:  Solving for Uy, Initial residual = 0.0640757, Final residual = 0.00629036, No Iterations 4
diagonalPBiCGStab:  Solving for Uz, Initial residual = 0.10204, Final residual = 0.00896684, No Iterations 5
diagonalPCG:  Solving for p, Initial residual = 0.509084, Final residual = 0.0508544, No Iterations 270
time step continuity errors : sum local = 0.000118778, global = -8.45606e-06, cumulative = -4.37142e-05
ExecutionTime = 236.745 s  ClockTime = 236 s

Time = 35s

diagonalPBiCGStab:  Solving for Ux, Initial residual = 0.074258, Final residual = 0.00642365, No Iterations 4
diagonalPBiCGStab:  Solving for Uy, Initial residual = 0.0503716, Final residual = 0.00502902, No Iterations 4
diagonalPBiCGStab:  Solving for Uz, Initial residual = 0.0731866, Final residual = 0.00608939, No Iterations 5
diagonalPCG:  Solving for p, Initial residual = 0.534602, Final residual = 0.0533437, No Iterations 110
time step continuity errors : sum local = 0.000124173, global = -3.76631e-06, cumulative = -4.74805e-05
ExecutionTime = 238.982 s  ClockTime = 239 s

Time = 36s

diagonalPBiCGStab:  Solving for Ux, Initial residual = 0.0690826, Final residual = 0.00526864, No Iterations 4
diagonalPBiCGStab:  Solving for Uy, Initial residual = 0.0436164, Final residual = 0.00408122, No Iterations 4
diagonalPBiCGStab:  Solving for Uz, Initial residual = 0.0656819, Final residual = 0.00518389, No Iterations 5
diagonalPCG:  Solving for p, Initial residual = 0.513126, Final residual = 0.0512982, No Iterations 298
time step continuity errors : sum local = 0.000117181, global = 5.61419e-06, cumulative = -4.18664e-05
ExecutionTime = 243.438 s  ClockTime = 243 s

Time = 37s

diagonalPBiCGStab:  Solving for Ux, Initial residual = 0.0419718, Final residual = 0.00391075, No Iterations 4
diagonalPBiCGStab:  Solving for Uy, Initial residual = 0.0492283, Final residual = 0.00137463, No Iterations 7
diagonalPBiCGStab:  Solving for Uz, Initial residual = 0.0769132, Final residual = 0.00343558, No Iterations 6
diagonalPCG:  Solving for p, Initial residual = 0.481835, Final residual = 0.0476327, No Iterations 666
time step continuity errors : sum local = 0.000101085, global = 2.81617e-07, cumulative = -4.15847e-05
ExecutionTime = 252.376 s  ClockTime = 252 s

Time = 38s

diagonalPBiCGStab:  Solving for Ux, Initial residual = 0.0987648, Final residual = 0.00752688, No Iterations 3
diagonalPBiCGStab:  Solving for Uy, Initial residual = 0.0554177, Final residual = 0.00323984, No Iterations 6
diagonalPBiCGStab:  Solving for Uz, Initial residual = 0.0740585, Final residual = 0.00732186, No Iterations 5
diagonalPCG:  Solving for p, Initial residual = 0.286002, Final residual = 0.0285545, No Iterations 206
time step continuity errors : sum local = 0.000113402, global = 1.60293e-06, cumulative = -3.99818e-05
ExecutionTime = 255.796 s  ClockTime = 255 s

Time = 39s

diagonalPBiCGStab:  Solving for Ux, Initial residual = 0.0893346, Final residual = 0.00495976, No Iterations 4
diagonalPBiCGStab:  Solving for Uy, Initial residual = 0.0486824, Final residual = 0.00413317, No Iterations 4
diagonalPBiCGStab:  Solving for Uz, Initial residual = 0.056341, Final residual = 0.00433391, No Iterations 5
diagonalPCG:  Solving for p, Initial residual = 0.264597, Final residual = 0.0262113, No Iterations 286
time step continuity errors : sum local = 0.000104805, global = -6.80521e-06, cumulative = -4.6787e-05
ExecutionTime = 260.159 s  ClockTime = 260 s

Time = 40s

diagonalPBiCGStab:  Solving for Ux, Initial residual = 0.0765116, Final residual = 0.00483945, No Iterations 4
diagonalPBiCGStab:  Solving for Uy, Initial residual = 0.0481016, Final residual = 0.00407362, No Iterations 6
diagonalPBiCGStab:  Solving for Uz, Initial residual = 0.0590408, Final residual = 0.0051852, No Iterations 5
diagonalPCG:  Solving for p, Initial residual = 0.242277, Final residual = 0.0241477, No Iterations 550
time step continuity errors : sum local = 9.71758e-05, global = 1.02114e-06, cumulative = -4.57659e-05
ExecutionTime = 267.692 s  ClockTime = 267 s

Time = 41s

diagonalPBiCGStab:  Solving for Ux, Initial residual = 0.0442181, Final residual = 0.00335611, No Iterations 4
diagonalPBiCGStab:  Solving for Uy, Initial residual = 0.0404123, Final residual = 0.00338142, No Iterations 5
diagonalPBiCGStab:  Solving for Uz, Initial residual = 0.0682469, Final residual = 0.00522138, No Iterations 5
diagonalPCG:  Solving for p, Initial residual = 0.470037, Final residual = 0.046381, No Iterations 226
time step continuity errors : sum local = 9.78563e-05, global = -8.04013e-06, cumulative = -5.3806e-05
ExecutionTime = 271.362 s  ClockTime = 271 s

Time = 42s

diagonalPBiCGStab:  Solving for Ux, Initial residual = 0.0364469, Final residual = 0.00353051, No Iterations 4
diagonalPBiCGStab:  Solving for Uy, Initial residual = 0.0331279, Final residual = 0.00091157, No Iterations 7
diagonalPBiCGStab:  Solving for Uz, Initial residual = 0.0537546, Final residual = 0.00507875, No Iterations 5
diagonalPCG:  Solving for p, Initial residual = 0.449539, Final residual = 0.0445108, No Iterations 242
time step continuity errors : sum local = 9.1951e-05, global = 8.8272e-07, cumulative = -5.29233e-05
ExecutionTime = 275.253 s  ClockTime = 275 s

Time = 43s

diagonalPBiCGStab:  Solving for Ux, Initial residual = 0.0319, Final residual = 0.00244358, No Iterations 4
diagonalPBiCGStab:  Solving for Uy, Initial residual = 0.0335598, Final residual = 0.0032836, No Iterations 5
diagonalPBiCGStab:  Solving for Uz, Initial residual = 0.0519684, Final residual = 0.00459706, No Iterations 5
diagonalPCG:  Solving for p, Initial residual = 0.438493, Final residual = 0.0434054, No Iterations 254
time step continuity errors : sum local = 8.62737e-05, global = 1.07058e-05, cumulative = -4.22175e-05
ExecutionTime = 279.264 s  ClockTime = 279 s

Time = 44s

diagonalPBiCGStab:  Solving for Ux, Initial residual = 0.0295446, Final residual = 0.00220833, No Iterations 4
diagonalPBiCGStab:  Solving for Uy, Initial residual = 0.0349803, Final residual = 0.00267121, No Iterations 5
diagonalPBiCGStab:  Solving for Uz, Initial residual = 0.0460702, Final residual = 0.00454434, No Iterations 4
diagonalPCG:  Solving for p, Initial residual = 0.425826, Final residual = 0.0420097, No Iterations 707
time step continuity errors : sum local = 8.10256e-05, global = -5.00869e-07, cumulative = -4.27184e-05
ExecutionTime = 288.613 s  ClockTime = 288 s

Time = 45s

diagonalPBiCGStab:  Solving for Ux, Initial residual = 0.0459566, Final residual = 0.0035516, No Iterations 4
diagonalPBiCGStab:  Solving for Uy, Initial residual = 0.0398764, Final residual = 0.00361933, No Iterations 5
diagonalPBiCGStab:  Solving for Uz, Initial residual = 0.0517285, Final residual = 0.00418191, No Iterations 5
diagonalPCG:  Solving for p, Initial residual = 0.247267, Final residual = 0.0246212, No Iterations 216
time step continuity errors : sum local = 8.17792e-05, global = 4.09681e-07, cumulative = -4.23087e-05
ExecutionTime = 292.128 s  ClockTime = 292 s

Time = 46s

diagonalPBiCGStab:  Solving for Ux, Initial residual = 0.0447785, Final residual = 0.00354263, No Iterations 3
diagonalPBiCGStab:  Solving for Uy, Initial residual = 0.0327775, Final residual = 0.00260216, No Iterations 5
diagonalPBiCGStab:  Solving for Uz, Initial residual = 0.0408483, Final residual = 0.00364278, No Iterations 5
diagonalPCG:  Solving for p, Initial residual = 0.232326, Final residual = 0.0226539, No Iterations 639
time step continuity errors : sum local = 7.67973e-05, global = 2.57282e-07, cumulative = -4.20514e-05
ExecutionTime = 300.659 s  ClockTime = 300 s

Time = 47s

diagonalPBiCGStab:  Solving for Ux, Initial residual = 0.0246928, Final residual = 0.00200274, No Iterations 4
diagonalPBiCGStab:  Solving for Uy, Initial residual = 0.0281884, Final residual = 0.00210939, No Iterations 5
diagonalPBiCGStab:  Solving for Uz, Initial residual = 0.0434514, Final residual = 0.00278374, No Iterations 6
diagonalPCG:  Solving for p, Initial residual = 0.298928, Final residual = 0.0296013, No Iterations 582
time step continuity errors : sum local = 6.98095e-05, global = 1.69401e-06, cumulative = -4.03574e-05
ExecutionTime = 308.519 s  ClockTime = 308 s

Time = 48s

diagonalPBiCGStab:  Solving for Ux, Initial residual = 0.022472, Final residual = 0.00183216, No Iterations 4
diagonalPBiCGStab:  Solving for Uy, Initial residual = 0.0265776, Final residual = 0.00245888, No Iterations 5
diagonalPBiCGStab:  Solving for Uz, Initial residual = 0.0443146, Final residual = 0.00257057, No Iterations 6
diagonalPCG:  Solving for p, Initial residual = 0.358589, Final residual = 0.0355682, No Iterations 76
time step continuity errors : sum local = 7.46515e-05, global = -4.39146e-08, cumulative = -4.04013e-05
ExecutionTime = 310.421 s  ClockTime = 310 s

Time = 49s

diagonalPBiCGStab:  Solving for Ux, Initial residual = 0.0216597, Final residual = 0.00163754, No Iterations 4
diagonalPBiCGStab:  Solving for Uy, Initial residual = 0.0243855, Final residual = 0.00203529, No Iterations 5
diagonalPBiCGStab:  Solving for Uz, Initial residual = 0.0377993, Final residual = 0.00278106, No Iterations 5
diagonalPCG:  Solving for p, Initial residual = 0.345975, Final residual = 0.0344584, No Iterations 81
time step continuity errors : sum local = 7.16492e-05, global = 6.45243e-06, cumulative = -3.39489e-05
ExecutionTime = 312.347 s  ClockTime = 312 s

Time = 50s

diagonalPBiCGStab:  Solving for Ux, Initial residual = 0.0220382, Final residual = 0.00213598, No Iterations 4
diagonalPBiCGStab:  Solving for Uy, Initial residual = 0.0260883, Final residual = 0.00255171, No Iterations 4
diagonalPBiCGStab:  Solving for Uz, Initial residual = 0.0348184, Final residual = 0.00269967, No Iterations 5
diagonalPCG:  Solving for p, Initial residual = 0.334059, Final residual = 0.0331794, No Iterations 462
time step continuity errors : sum local = 6.72638e-05, global = -4.58091e-07, cumulative = -3.4407e-05
ExecutionTime = 318.765 s  ClockTime = 318 s

Time = 51s

diagonalPBiCGStab:  Solving for Ux, Initial residual = 0.0295535, Final residual = 0.0025115, No Iterations 4
diagonalPBiCGStab:  Solving for Uy, Initial residual = 0.0335686, Final residual = 0.00262741, No Iterations 5
diagonalPBiCGStab:  Solving for Uz, Initial residual = 0.0427312, Final residual = 0.00343272, No Iterations 5
diagonalPCG:  Solving for p, Initial residual = 0.236605, Final residual = 0.0235769, No Iterations 159
time step continuity errors : sum local = 6.97164e-05, global = 1.56827e-06, cumulative = -3.28387e-05
ExecutionTime = 321.648 s  ClockTime = 321 s

Time = 52s

diagonalPBiCGStab:  Solving for Ux, Initial residual = 0.0280968, Final residual = 0.0021212, No Iterations 4
diagonalPBiCGStab:  Solving for Uy, Initial residual = 0.0288525, Final residual = 0.00213524, No Iterations 5
diagonalPBiCGStab:  Solving for Uz, Initial residual = 0.0333118, Final residual = 0.00184507, No Iterations 6
diagonalPCG:  Solving for p, Initial residual = 0.229034, Final residual = 0.0226516, No Iterations 182
time step continuity errors : sum local = 6.73714e-05, global = -3.82618e-06, cumulative = -3.66649e-05
ExecutionTime = 324.756 s  ClockTime = 324 s

Time = 53s

diagonalPBiCGStab:  Solving for Ux, Initial residual = 0.0260832, Final residual = 0.00206588, No Iterations 4
diagonalPBiCGStab:  Solving for Uy, Initial residual = 0.0260105, Final residual = 0.00236236, No Iterations 5
diagonalPBiCGStab:  Solving for Uz, Initial residual = 0.0336236, Final residual = 0.0029042, No Iterations 5
diagonalPCG:  Solving for p, Initial residual = 0.223002, Final residual = 0.0222395, No Iterations 564
time step continuity errors : sum local = 6.60814e-05, global = 4.09268e-07, cumulative = -3.62556e-05
ExecutionTime = 332.471 s  ClockTime = 332 s

Time = 54s

diagonalPBiCGStab:  Solving for Ux, Initial residual = 0.0187192, Final residual = 0.00158515, No Iterations 4
diagonalPBiCGStab:  Solving for Uy, Initial residual = 0.0254496, Final residual = 0.00220682, No Iterations 5
diagonalPBiCGStab:  Solving for Uz, Initial residual = 0.0387998, Final residual = 0.00319149, No Iterations 5
diagonalPCG:  Solving for p, Initial residual = 0.343048, Final residual = 0.0340777, No Iterations 88
time step continuity errors : sum local = 6.70711e-05, global = -3.07604e-06, cumulative = -3.93316e-05
ExecutionTime = 334.505 s  ClockTime = 334 s

Time = 55s

diagonalPBiCGStab:  Solving for Ux, Initial residual = 0.0184001, Final residual = 0.00173381, No Iterations 4
diagonalPBiCGStab:  Solving for Uy, Initial residual = 0.0236274, Final residual = 0.00200038, No Iterations 5
diagonalPBiCGStab:  Solving for Uz, Initial residual = 0.0311221, Final residual = 0.00239432, No Iterations 5
diagonalPCG:  Solving for p, Initial residual = 0.336389, Final residual = 0.0334758, No Iterations 188
time step continuity errors : sum local = 6.6142e-05, global = -1.71699e-06, cumulative = -4.10486e-05
ExecutionTime = 337.727 s  ClockTime = 337 s

Time = 56s

diagonalPBiCGStab:  Solving for Ux, Initial residual = 0.0172475, Final residual = 0.00132672, No Iterations 4
diagonalPBiCGStab:  Solving for Uy, Initial residual = 0.02663, Final residual = 0.00216657, No Iterations 5
diagonalPBiCGStab:  Solving for Uz, Initial residual = 0.0306278, Final residual = 0.00279087, No Iterations 5
diagonalPCG:  Solving for p, Initial residual = 0.332522, Final residual = 0.0332024, No Iterations 78
time step continuity errors : sum local = 6.29818e-05, global = 2.93247e-06, cumulative = -3.81162e-05
ExecutionTime = 339.608 s  ClockTime = 339 s

Time = 57s

diagonalPBiCGStab:  Solving for Ux, Initial residual = 0.0171847, Final residual = 0.0015901, No Iterations 4
diagonalPBiCGStab:  Solving for Uy, Initial residual = 0.02542, Final residual = 0.00235292, No Iterations 4
diagonalPBiCGStab:  Solving for Uz, Initial residual = 0.0288194, Final residual = 0.00267509, No Iterations 4
diagonalPCG:  Solving for p, Initial residual = 0.326465, Final residual = 0.0323974, No Iterations 101
time step continuity errors : sum local = 6.08866e-05, global = 5.28606e-06, cumulative = -3.28301e-05
ExecutionTime = 341.758 s  ClockTime = 341 s

Time = 58s

diagonalPBiCGStab:  Solving for Ux, Initial residual = 0.0167544, Final residual = 0.0015403, No Iterations 4
diagonalPBiCGStab:  Solving for Uy, Initial residual = 0.0231878, Final residual = 0.00202564, No Iterations 5
diagonalPBiCGStab:  Solving for Uz, Initial residual = 0.0280862, Final residual = 0.00261049, No Iterations 4
diagonalPCG:  Solving for p, Initial residual = 0.321293, Final residual = 0.0320716, No Iterations 570
time step continuity errors : sum local = 5.94857e-05, global = -4.95462e-07, cumulative = -3.33256e-05
ExecutionTime = 349.449 s  ClockTime = 349 s

Time = 59s

diagonalPBiCGStab:  Solving for Ux, Initial residual = 0.0166415, Final residual = 0.00127118, No Iterations 4
diagonalPBiCGStab:  Solving for Uy, Initial residual = 0.0234717, Final residual = 0.00213465, No Iterations 5
diagonalPBiCGStab:  Solving for Uz, Initial residual = 0.0300267, Final residual = 0.00267323, No Iterations 5
diagonalPCG:  Solving for p, Initial residual = 0.261505, Final residual = 0.0261501, No Iterations 169
time step continuity errors : sum local = 5.97699e-05, global = -1.12511e-06, cumulative = -3.44507e-05
ExecutionTime = 352.451 s  ClockTime = 352 s

Time = 60s

diagonalPBiCGStab:  Solving for Ux, Initial residual = 0.0144783, Final residual = 0.00120547, No Iterations 4
diagonalPBiCGStab:  Solving for Uy, Initial residual = 0.0248058, Final residual = 0.0024738, No Iterations 4
diagonalPBiCGStab:  Solving for Uz, Initial residual = 0.0277343, Final residual = 0.00233046, No Iterations 5
diagonalPCG:  Solving for p, Initial residual = 0.258456, Final residual = 0.0257345, No Iterations 199
time step continuity errors : sum local = 5.78836e-05, global = -4.55495e-06, cumulative = -3.90056e-05
ExecutionTime = 355.768 s  ClockTime = 355 s

Time = 61s

diagonalPBiCGStab:  Solving for Ux, Initial residual = 0.0124329, Final residual = 0.0011021, No Iterations 4
diagonalPBiCGStab:  Solving for Uy, Initial residual = 0.0269833, Final residual = 0.00211399, No Iterations 5
diagonalPBiCGStab:  Solving for Uz, Initial residual = 0.027536, Final residual = 0.00232824, No Iterations 5
diagonalPCG:  Solving for p, Initial residual = 0.26875, Final residual = 0.0266531, No Iterations 584
time step continuity errors : sum local = 5.74731e-05, global = 1.47388e-07, cumulative = -3.88582e-05
ExecutionTime = 363.718 s  ClockTime = 363 s

Time = 62s

diagonalPBiCGStab:  Solving for Ux, Initial residual = 0.0208516, Final residual = 0.00166328, No Iterations 4
diagonalPBiCGStab:  Solving for Uy, Initial residual = 0.0271918, Final residual = 0.00155931, No Iterations 6
diagonalPBiCGStab:  Solving for Uz, Initial residual = 0.0299061, Final residual = 0.00283984, No Iterations 4
diagonalPCG:  Solving for p, Initial residual = 0.286605, Final residual = 0.0285516, No Iterations 187
time step continuity errors : sum local = 6.10813e-05, global = 5.76114e-08, cumulative = -3.88006e-05
ExecutionTime = 366.886 s  ClockTime = 366 s

Time = 63s

diagonalPBiCGStab:  Solving for Ux, Initial residual = 0.0203783, Final residual = 0.00153172, No Iterations 4
diagonalPBiCGStab:  Solving for Uy, Initial residual = 0.0231332, Final residual = 0.0017501, No Iterations 5
diagonalPBiCGStab:  Solving for Uz, Initial residual = 0.0272809, Final residual = 0.000854344, No Iterations 7
diagonalPCG:  Solving for p, Initial residual = 0.282067, Final residual = 0.027678, No Iterations 187
time step continuity errors : sum local = 5.74459e-05, global = 2.13504e-06, cumulative = -3.66656e-05
ExecutionTime = 370.137 s  ClockTime = 370 s

Time = 64s

diagonalPBiCGStab:  Solving for Ux, Initial residual = 0.0193876, Final residual = 0.00148721, No Iterations 4
diagonalPBiCGStab:  Solving for Uy, Initial residual = 0.022042, Final residual = 0.00122755, No Iterations 6
diagonalPBiCGStab:  Solving for Uz, Initial residual = 0.0263169, Final residual = 0.00249299, No Iterations 5
diagonalPCG:  Solving for p, Initial residual = 0.287354, Final residual = 0.0282577, No Iterations 219
time step continuity errors : sum local = 5.56106e-05, global = 5.87067e-06, cumulative = -3.07949e-05
ExecutionTime = 373.709 s  ClockTime = 373 s

Time = 65s

diagonalPBiCGStab:  Solving for Ux, Initial residual = 0.0170214, Final residual = 0.00156954, No Iterations 4
diagonalPBiCGStab:  Solving for Uy, Initial residual = 0.0223314, Final residual = 0.00175416, No Iterations 5
diagonalPBiCGStab:  Solving for Uz, Initial residual = 0.0264568, Final residual = 0.00250367, No Iterations 4
diagonalPCG:  Solving for p, Initial residual = 0.294684, Final residual = 0.0292413, No Iterations 600
time step continuity errors : sum local = 5.53083e-05, global = 5.96765e-08, cumulative = -3.07352e-05
ExecutionTime = 381.72 s  ClockTime = 381 s

Time = 66s

diagonalPBiCGStab:  Solving for Ux, Initial residual = 0.0213383, Final residual = 0.0017303, No Iterations 4
diagonalPBiCGStab:  Solving for Uy, Initial residual = 0.0271256, Final residual = 0.00263803, No Iterations 5
diagonalPBiCGStab:  Solving for Uz, Initial residual = 0.0308824, Final residual = 0.00275044, No Iterations 5
diagonalPCG:  Solving for p, Initial residual = 0.226006, Final residual = 0.0225168, No Iterations 193
time step continuity errors : sum local = 6.32501e-05, global = 1.58611e-06, cumulative = -2.91491e-05
ExecutionTime = 385.007 s  ClockTime = 385 s

Time = 67s

diagonalPBiCGStab:  Solving for Ux, Initial residual = 0.0206196, Final residual = 0.00150967, No Iterations 4
diagonalPBiCGStab:  Solving for Uy, Initial residual = 0.028958, Final residual = 0.00251289, No Iterations 4
diagonalPBiCGStab:  Solving for Uz, Initial residual = 0.0260375, Final residual = 0.00259369, No Iterations 4
diagonalPCG:  Solving for p, Initial residual = 0.221504, Final residual = 0.0219767, No Iterations 209
time step continuity errors : sum local = 6.0678e-05, global = -6.13489e-06, cumulative = -3.5284e-05
ExecutionTime = 388.439 s  ClockTime = 388 s

Time = 68s

diagonalPBiCGStab:  Solving for Ux, Initial residual = 0.0211011, Final residual = 0.00146452, No Iterations 4
diagonalPBiCGStab:  Solving for Uy, Initial residual = 0.0274109, Final residual = 0.00261884, No Iterations 4
diagonalPBiCGStab:  Solving for Uz, Initial residual = 0.0267077, Final residual = 0.0025695, No Iterations 5
diagonalPCG:  Solving for p, Initial residual = 0.221924, Final residual = 0.0217338, No Iterations 545
time step continuity errors : sum local = 5.8734e-05, global = 4.00861e-07, cumulative = -3.48832e-05
ExecutionTime = 395.856 s  ClockTime = 395 s

Time = 69s

diagonalPBiCGStab:  Solving for Ux, Initial residual = 0.0193464, Final residual = 0.00154769, No Iterations 4
diagonalPBiCGStab:  Solving for Uy, Initial residual = 0.0250434, Final residual = 0.00156331, No Iterations 6
diagonalPBiCGStab:  Solving for Uz, Initial residual = 0.0314333, Final residual = 0.00291735, No Iterations 5
diagonalPCG:  Solving for p, Initial residual = 0.278439, Final residual = 0.0276468, No Iterations 182
time step continuity errors : sum local = 5.98744e-05, global = -2.69738e-06, cumulative = -3.75805e-05
ExecutionTime = 399.008 s  ClockTime = 399 s

Time = 70s

diagonalPBiCGStab:  Solving for Ux, Initial residual = 0.0182293, Final residual = 0.00139948, No Iterations 4
diagonalPBiCGStab:  Solving for Uy, Initial residual = 0.0202068, Final residual = 0.00195394, No Iterations 5
diagonalPBiCGStab:  Solving for Uz, Initial residual = 0.0252424, Final residual = 0.00230835, No Iterations 4
diagonalPCG:  Solving for p, Initial residual = 0.274599, Final residual = 0.0273454, No Iterations 36
time step continuity errors : sum local = 5.80293e-05, global = 5.69767e-06, cumulative = -3.18829e-05
ExecutionTime = 400.407 s  ClockTime = 400 s

Time = 71s

diagonalPBiCGStab:  Solving for Ux, Initial residual = 0.0178158, Final residual = 0.00151078, No Iterations 3
diagonalPBiCGStab:  Solving for Uy, Initial residual = 0.0194089, Final residual = 0.00150065, No Iterations 5
diagonalPBiCGStab:  Solving for Uz, Initial residual = 0.0240168, Final residual = 0.00193494, No Iterations 4
diagonalPCG:  Solving for p, Initial residual = 0.263962, Final residual = 0.0263072, No Iterations 558
time step continuity errors : sum local = 5.52342e-05, global = -1.45375e-06, cumulative = -3.33366e-05
ExecutionTime = 407.911 s  ClockTime = 408 s

Time = 72s

diagonalPBiCGStab:  Solving for Ux, Initial residual = 0.0150212, Final residual = 0.00145954, No Iterations 4
diagonalPBiCGStab:  Solving for Uy, Initial residual = 0.026577, Final residual = 0.000666909, No Iterations 7
diagonalPBiCGStab:  Solving for Uz, Initial residual = 0.0286868, Final residual = 0.00277744, No Iterations 6
diagonalPCG:  Solving for p, Initial residual = 0.230239, Final residual = 0.0227463, No Iterations 180
time step continuity errors : sum local = 5.63892e-05, global = 3.33507e-06, cumulative = -3.00015e-05
ExecutionTime = 411.103 s  ClockTime = 411 s

Time = 73s

diagonalPBiCGStab:  Solving for Ux, Initial residual = 0.0148543, Final residual = 0.00138793, No Iterations 4
diagonalPBiCGStab:  Solving for Uy, Initial residual = 0.0271469, Final residual = 0.00266782, No Iterations 4
diagonalPBiCGStab:  Solving for Uz, Initial residual = 0.0244336, Final residual = 0.00232884, No Iterations 4
diagonalPCG:  Solving for p, Initial residual = 0.228864, Final residual = 0.0226904, No Iterations 188
time step continuity errors : sum local = 5.53579e-05, global = -3.05384e-06, cumulative = -3.30554e-05
ExecutionTime = 414.238 s  ClockTime = 414 s

Time = 74s

diagonalPBiCGStab:  Solving for Ux, Initial residual = 0.0142081, Final residual = 0.00126072, No Iterations 4
diagonalPBiCGStab:  Solving for Uy, Initial residual = 0.0237687, Final residual = 0.00225495, No Iterations 4
diagonalPBiCGStab:  Solving for Uz, Initial residual = 0.0242054, Final residual = 0.00202664, No Iterations 4
diagonalPCG:  Solving for p, Initial residual = 0.225524, Final residual = 0.0224481, No Iterations 586
time step continuity errors : sum local = 5.37503e-05, global = -7.05583e-08, cumulative = -3.31259e-05
ExecutionTime = 422.161 s  ClockTime = 422 s

Time = 75s

diagonalPBiCGStab:  Solving for Ux, Initial residual = 0.0167998, Final residual = 0.0012948, No Iterations 4
diagonalPBiCGStab:  Solving for Uy, Initial residual = 0.0230222, Final residual = 0.00213304, No Iterations 4
diagonalPBiCGStab:  Solving for Uz, Initial residual = 0.0263289, Final residual = 0.00244418, No Iterations 4
diagonalPCG:  Solving for p, Initial residual = 0.294727, Final residual = 0.0292058, No Iterations 175
time step continuity errors : sum local = 5.56577e-05, global = -3.13436e-06, cumulative = -3.62603e-05
ExecutionTime = 425.153 s  ClockTime = 425 s

Time = 76s

diagonalPBiCGStab:  Solving for Ux, Initial residual = 0.0152978, Final residual = 0.00128689, No Iterations 4
diagonalPBiCGStab:  Solving for Uy, Initial residual = 0.021865, Final residual = 0.00185968, No Iterations 5
diagonalPBiCGStab:  Solving for Uz, Initial residual = 0.024147, Final residual = 0.002137, No Iterations 4
diagonalPCG:  Solving for p, Initial residual = 0.292139, Final residual = 0.0289619, No Iterations 187
time step continuity errors : sum local = 5.3662e-05, global = 5.12306e-07, cumulative = -3.5748e-05
ExecutionTime = 428.33 s  ClockTime = 428 s

Time = 77s

diagonalPBiCGStab:  Solving for Ux, Initial residual = 0.0130668, Final residual = 0.00117131, No Iterations 4
diagonalPBiCGStab:  Solving for Uy, Initial residual = 0.0232548, Final residual = 0.00218222, No Iterations 4
diagonalPBiCGStab:  Solving for Uz, Initial residual = 0.0238962, Final residual = 0.00195133, No Iterations 4
diagonalPCG:  Solving for p, Initial residual = 0.293794, Final residual = 0.0293349, No Iterations 156
time step continuity errors : sum local = 5.24418e-05, global = 2.98836e-06, cumulative = -3.27596e-05
ExecutionTime = 431.086 s  ClockTime = 431 s

Time = 78s

diagonalPBiCGStab:  Solving for Ux, Initial residual = 0.0123186, Final residual = 0.00112881, No Iterations 4
diagonalPBiCGStab:  Solving for Uy, Initial residual = 0.0235476, Final residual = 0.00219903, No Iterations 4
diagonalPBiCGStab:  Solving for Uz, Initial residual = 0.0236758, Final residual = 0.0020123, No Iterations 4
diagonalPCG:  Solving for p, Initial residual = 0.290961, Final residual = 0.0284301, No Iterations 590
time step continuity errors : sum local = 5.06293e-05, global = -4.08624e-07, cumulative = -3.31683e-05
ExecutionTime = 439.062 s  ClockTime = 439 s

Time = 79s

diagonalPBiCGStab:  Solving for Ux, Initial residual = 0.0155898, Final residual = 0.00125391, No Iterations 4
diagonalPBiCGStab:  Solving for Uy, Initial residual = 0.0230867, Final residual = 0.00185981, No Iterations 4
diagonalPBiCGStab:  Solving for Uz, Initial residual = 0.0247385, Final residual = 0.00229909, No Iterations 4
diagonalPCG:  Solving for p, Initial residual = 0.22483, Final residual = 0.0221623, No Iterations 173
time step continuity errors : sum local = 5.48565e-05, global = 2.32651e-06, cumulative = -3.08417e-05
ExecutionTime = 442.013 s  ClockTime = 442 s

Time = 80s

diagonalPBiCGStab:  Solving for Ux, Initial residual = 0.0147643, Final residual = 0.00110863, No Iterations 4
diagonalPBiCGStab:  Solving for Uy, Initial residual = 0.02228, Final residual = 0.00214266, No Iterations 4
diagonalPBiCGStab:  Solving for Uz, Initial residual = 0.0227787, Final residual = 0.0018486, No Iterations 4
diagonalPCG:  Solving for p, Initial residual = 0.221077, Final residual = 0.0218026, No Iterations 53
time step continuity errors : sum local = 5.40074e-05, global = -2.32951e-06, cumulative = -3.31713e-05
ExecutionTime = 443.561 s  ClockTime = 443 s

Time = 81s

diagonalPBiCGStab:  Solving for Ux, Initial residual = 0.0143338, Final residual = 0.0010211, No Iterations 4
diagonalPBiCGStab:  Solving for Uy, Initial residual = 0.0234863, Final residual = 0.00195762, No Iterations 4
diagonalPBiCGStab:  Solving for Uz, Initial residual = 0.0225705, Final residual = 0.00183912, No Iterations 5
diagonalPCG:  Solving for p, Initial residual = 0.216466, Final residual = 0.0216135, No Iterations 190
time step continuity errors : sum local = 5.41311e-05, global = -3.89958e-06, cumulative = -3.70708e-05
ExecutionTime = 446.751 s  ClockTime = 446 s

Time = 82s

diagonalPBiCGStab:  Solving for Ux, Initial residual = 0.0146391, Final residual = 0.0013353, No Iterations 3
diagonalPBiCGStab:  Solving for Uy, Initial residual = 0.0249083, Final residual = 0.00240726, No Iterations 4
diagonalPBiCGStab:  Solving for Uz, Initial residual = 0.0225623, Final residual = 0.0022415, No Iterations 4
diagonalPCG:  Solving for p, Initial residual = 0.215355, Final residual = 0.0214347, No Iterations 40
time step continuity errors : sum local = 5.41029e-05, global = -5.80647e-06, cumulative = -4.28773e-05
ExecutionTime = 448.145 s  ClockTime = 448 s

Time = 83s

diagonalPBiCGStab:  Solving for Ux, Initial residual = 0.0143845, Final residual = 0.00120573, No Iterations 3
diagonalPBiCGStab:  Solving for Uy, Initial residual = 0.0240143, Final residual = 0.00120327, No Iterations 5
diagonalPBiCGStab:  Solving for Uz, Initial residual = 0.0220996, Final residual = 0.00175831, No Iterations 4
diagonalPCG:  Solving for p, Initial residual = 0.211921, Final residual = 0.021001, No Iterations 573
time step continuity errors : sum local = 5.37464e-05, global = -1.45779e-06, cumulative = -4.43351e-05
ExecutionTime = 455.847 s  ClockTime = 455 s

Time = 84s

diagonalPBiCGStab:  Solving for Ux, Initial residual = 0.01369, Final residual = 0.00121579, No Iterations 4
diagonalPBiCGStab:  Solving for Uy, Initial residual = 0.0239388, Final residual = 0.00206057, No Iterations 4
diagonalPBiCGStab:  Solving for Uz, Initial residual = 0.0255289, Final residual = 0.00226746, No Iterations 4
diagonalPCG:  Solving for p, Initial residual = 0.286346, Final residual = 0.0283837, No Iterations 71
time step continuity errors : sum local = 5.68595e-05, global = 1.17398e-06, cumulative = -4.31611e-05
ExecutionTime = 457.627 s  ClockTime = 457 s

Time = 85s

diagonalPBiCGStab:  Solving for Ux, Initial residual = 0.0139293, Final residual = 0.00125874, No Iterations 3
diagonalPBiCGStab:  Solving for Uy, Initial residual = 0.019819, Final residual = 0.00184015, No Iterations 4
diagonalPBiCGStab:  Solving for Uz, Initial residual = 0.0224732, Final residual = 0.00176018, No Iterations 4
diagonalPCG:  Solving for p, Initial residual = 0.27965, Final residual = 0.0279342, No Iterations 693
time step continuity errors : sum local = 5.66613e-05, global = -3.38128e-07, cumulative = -4.34992e-05
ExecutionTime = 466.707 s  ClockTime = 466 s

Time = 86s

diagonalPBiCGStab:  Solving for Ux, Initial residual = 0.0155873, Final residual = 0.00126663, No Iterations 4
diagonalPBiCGStab:  Solving for Uy, Initial residual = 0.0239669, Final residual = 0.00116936, No Iterations 6
diagonalPBiCGStab:  Solving for Uz, Initial residual = 0.0258881, Final residual = 0.00237436, No Iterations 4
diagonalPCG:  Solving for p, Initial residual = 0.216969, Final residual = 0.0214609, No Iterations 63
time step continuity errors : sum local = 5.64137e-05, global = 3.87071e-06, cumulative = -3.96285e-05
ExecutionTime = 468.429 s  ClockTime = 468 s

Time = 87s

diagonalPBiCGStab:  Solving for Ux, Initial residual = 0.0153872, Final residual = 0.00134738, No Iterations 3
diagonalPBiCGStab:  Solving for Uy, Initial residual = 0.0233049, Final residual = 0.00230947, No Iterations 4
diagonalPBiCGStab:  Solving for Uz, Initial residual = 0.0219126, Final residual = 0.00181014, No Iterations 4
diagonalPCG:  Solving for p, Initial residual = 0.211417, Final residual = 0.021139, No Iterations 211
time step continuity errors : sum local = 5.61769e-05, global = 4.78958e-06, cumulative = -3.4839e-05
ExecutionTime = 471.855 s  ClockTime = 471 s

Time = 88s

diagonalPBiCGStab:  Solving for Ux, Initial residual = 0.0154207, Final residual = 0.00128008, No Iterations 3
diagonalPBiCGStab:  Solving for Uy, Initial residual = 0.02293, Final residual = 0.0018955, No Iterations 4
diagonalPBiCGStab:  Solving for Uz, Initial residual = 0.0221916, Final residual = 0.00154313, No Iterations 5
diagonalPCG:  Solving for p, Initial residual = 0.20744, Final residual = 0.0204631, No Iterations 77
time step continuity errors : sum local = 5.50916e-05, global = 1.62176e-06, cumulative = -3.32172e-05
ExecutionTime = 473.708 s  ClockTime = 473 s

Time = 89s

diagonalPBiCGStab:  Solving for Ux, Initial residual = 0.0151636, Final residual = 0.00120609, No Iterations 3
diagonalPBiCGStab:  Solving for Uy, Initial residual = 0.0227367, Final residual = 0.001903, No Iterations 4
diagonalPBiCGStab:  Solving for Uz, Initial residual = 0.022517, Final residual = 0.00212721, No Iterations 4
diagonalPCG:  Solving for p, Initial residual = 0.205345, Final residual = 0.0200018, No Iterations 82
time step continuity errors : sum local = 5.46173e-05, global = -8.06867e-08, cumulative = -3.32979e-05
ExecutionTime = 475.563 s  ClockTime = 475 s

Time = 90s

diagonalPBiCGStab:  Solving for Ux, Initial residual = 0.0146323, Final residual = 0.00117468, No Iterations 3
diagonalPBiCGStab:  Solving for Uy, Initial residual = 0.0221875, Final residual = 0.001828, No Iterations 4
diagonalPBiCGStab:  Solving for Uz, Initial residual = 0.0228752, Final residual = 0.00208365, No Iterations 4
diagonalPCG:  Solving for p, Initial residual = 0.204566, Final residual = 0.0203395, No Iterations 33
time step continuity errors : sum local = 5.6391e-05, global = -1.3905e-06, cumulative = -3.46884e-05
ExecutionTime = 476.866 s  ClockTime = 476 s

Time = 91s

diagonalPBiCGStab:  Solving for Ux, Initial residual = 0.0142432, Final residual = 0.00113051, No Iterations 3
diagonalPBiCGStab:  Solving for Uy, Initial residual = 0.0215276, Final residual = 0.00210723, No Iterations 4
diagonalPBiCGStab:  Solving for Uz, Initial residual = 0.0225165, Final residual = 0.00205595, No Iterations 4
diagonalPCG:  Solving for p, Initial residual = 0.201571, Final residual = 0.0199591, No Iterations 480
time step continuity errors : sum local = 5.60792e-05, global = -8.95266e-07, cumulative = -3.55836e-05
ExecutionTime = 483.436 s  ClockTime = 483 s

Time = 92s

diagonalPBiCGStab:  Solving for Ux, Initial residual = 0.00958016, Final residual = 0.000768962, No Iterations 4
diagonalPBiCGStab:  Solving for Uy, Initial residual = 0.0212765, Final residual = 0.00162274, No Iterations 4
diagonalPBiCGStab:  Solving for Uz, Initial residual = 0.0237915, Final residual = 0.0019227, No Iterations 4
diagonalPCG:  Solving for p, Initial residual = 0.269583, Final residual = 0.0265822, No Iterations 29
time step continuity errors : sum local = 5.79595e-05, global = -2.34754e-06, cumulative = -3.79312e-05
ExecutionTime = 484.729 s  ClockTime = 484 s

Time = 93s

diagonalPBiCGStab:  Solving for Ux, Initial residual = 0.0092392, Final residual = 0.000844381, No Iterations 4
diagonalPBiCGStab:  Solving for Uy, Initial residual = 0.0203236, Final residual = 0.00182579, No Iterations 4
diagonalPBiCGStab:  Solving for Uz, Initial residual = 0.0220136, Final residual = 0.00160016, No Iterations 4
diagonalPCG:  Solving for p, Initial residual = 0.26674, Final residual = 0.0265539, No Iterations 120
time step continuity errors : sum local = 5.7992e-05, global = 1.56971e-06, cumulative = -3.63615e-05
ExecutionTime = 487.079 s  ClockTime = 487 s

Time = 94s

diagonalPBiCGStab:  Solving for Ux, Initial residual = 0.008688, Final residual = 0.00085661, No Iterations 4
diagonalPBiCGStab:  Solving for Uy, Initial residual = 0.0182998, Final residual = 0.00178229, No Iterations 4
diagonalPBiCGStab:  Solving for Uz, Initial residual = 0.0223922, Final residual = 0.00189761, No Iterations 4
diagonalPCG:  Solving for p, Initial residual = 0.262817, Final residual = 0.0262495, No Iterations 177
time step continuity errors : sum local = 5.70333e-05, global = 5.03764e-06, cumulative = -3.13238e-05
ExecutionTime = 490.076 s  ClockTime = 490 s

Time = 95s

diagonalPBiCGStab:  Solving for Ux, Initial residual = 0.0106833, Final residual = 0.000920374, No Iterations 4
diagonalPBiCGStab:  Solving for Uy, Initial residual = 0.0204765, Final residual = 0.00203734, No Iterations 4
diagonalPBiCGStab:  Solving for Uz, Initial residual = 0.0234694, Final residual = 0.00183257, No Iterations 4
diagonalPCG:  Solving for p, Initial residual = 0.266168, Final residual = 0.026517, No Iterations 83
time step continuity errors : sum local = 5.77227e-05, global = 6.65813e-06, cumulative = -2.46657e-05
ExecutionTime = 491.965 s  ClockTime = 492 s

Time = 96s

diagonalPBiCGStab:  Solving for Ux, Initial residual = 0.00955938, Final residual = 0.000883614, No Iterations 4
diagonalPBiCGStab:  Solving for Uy, Initial residual = 0.0229489, Final residual = 0.00208136, No Iterations 4
diagonalPBiCGStab:  Solving for Uz, Initial residual = 0.0236698, Final residual = 0.0019335, No Iterations 4
diagonalPCG:  Solving for p, Initial residual = 0.2623, Final residual = 0.0260356, No Iterations 555
time step continuity errors : sum local = 5.65974e-05, global = 1.10339e-06, cumulative = -2.35623e-05
ExecutionTime = 499.521 s  ClockTime = 499 s

Time = 97s

diagonalPBiCGStab:  Solving for Ux, Initial residual = 0.0175841, Final residual = 0.00113033, No Iterations 4
diagonalPBiCGStab:  Solving for Uy, Initial residual = 0.0233744, Final residual = 0.00193722, No Iterations 4
diagonalPBiCGStab:  Solving for Uz, Initial residual = 0.0253504, Final residual = 0.00231205, No Iterations 6
diagonalPCG:  Solving for p, Initial residual = 0.203075, Final residual = 0.0201299, No Iterations 69
time step continuity errors : sum local = 6.09563e-05, global = -8.0129e-08, cumulative = -2.36424e-05
ExecutionTime = 501.3 s  ClockTime = 501 s

Time = 98s

diagonalPBiCGStab:  Solving for Ux, Initial residual = 0.016957, Final residual = 0.000965735, No Iterations 4
diagonalPBiCGStab:  Solving for Uy, Initial residual = 0.0214095, Final residual = 0.00198371, No Iterations 4
diagonalPBiCGStab:  Solving for Uz, Initial residual = 0.0229536, Final residual = 0.00136696, No Iterations 5
diagonalPCG:  Solving for p, Initial residual = 0.196768, Final residual = 0.0196019, No Iterations 603
time step continuity errors : sum local = 6.01207e-05, global = -2.02709e-07, cumulative = -2.38452e-05
ExecutionTime = 509.408 s  ClockTime = 509 s

Time = 99s

diagonalPBiCGStab:  Solving for Ux, Initial residual = 0.0102608, Final residual = 0.000771763, No Iterations 4
diagonalPBiCGStab:  Solving for Uy, Initial residual = 0.0223583, Final residual = 0.00194243, No Iterations 4
diagonalPBiCGStab:  Solving for Uz, Initial residual = 0.0250996, Final residual = 0.00195336, No Iterations 5
diagonalPCG:  Solving for p, Initial residual = 0.26836, Final residual = 0.0267819, No Iterations 123
time step continuity errors : sum local = 5.92381e-05, global = -4.49243e-06, cumulative = -2.83376e-05
ExecutionTime = 511.821 s  ClockTime = 511 s

Time = 100s

diagonalPBiCGStab:  Solving for Ux, Initial residual = 0.00952639, Final residual = 0.00089825, No Iterations 4
diagonalPBiCGStab:  Solving for Uy, Initial residual = 0.0188782, Final residual = 0.00144148, No Iterations 4
diagonalPBiCGStab:  Solving for Uz, Initial residual = 0.0229217, Final residual = 0.00228747, No Iterations 4
diagonalPCG:  Solving for p, Initial residual = 0.267147, Final residual = 0.0265154, No Iterations 185
time step continuity errors : sum local = 5.83436e-05, global = -3.60046e-06, cumulative = -3.1938e-05
ExecutionTime = 514.934 s  ClockTime = 515 s

Time = 101s

diagonalPBiCGStab:  Solving for Ux, Initial residual = 0.00874105, Final residual = 0.000667126, No Iterations 4
diagonalPBiCGStab:  Solving for Uy, Initial residual = 0.0188263, Final residual = 0.00160152, No Iterations 4
diagonalPBiCGStab:  Solving for Uz, Initial residual = 0.0239602, Final residual = 0.00187629, No Iterations 4
diagonalPCG:  Solving for p, Initial residual = 0.265943, Final residual = 0.0264314, No Iterations 87
time step continuity errors : sum local = 5.66866e-05, global = -2.43556e-06, cumulative = -3.43736e-05
ExecutionTime = 516.924 s  ClockTime = 517 s

Time = 102s

diagonalPBiCGStab:  Solving for Ux, Initial residual = 0.00812991, Final residual = 0.000684202, No Iterations 4
diagonalPBiCGStab:  Solving for Uy, Initial residual = 0.021369, Final residual = 0.00208604, No Iterations 4
diagonalPBiCGStab:  Solving for Uz, Initial residual = 0.0239482, Final residual = 0.00194963, No Iterations 5
diagonalPCG:  Solving for p, Initial residual = 0.262514, Final residual = 0.0260057, No Iterations 120
time step continuity errors : sum local = 5.50469e-05, global = -2.31354e-06, cumulative = -3.66871e-05
ExecutionTime = 519.294 s  ClockTime = 519 s

Time = 103s

diagonalPBiCGStab:  Solving for Ux, Initial residual = 0.00861934, Final residual = 0.000680384, No Iterations 4
diagonalPBiCGStab:  Solving for Uy, Initial residual = 0.0215939, Final residual = 0.00210068, No Iterations 4
diagonalPBiCGStab:  Solving for Uz, Initial residual = 0.0234802, Final residual = 0.00188413, No Iterations 4
diagonalPCG:  Solving for p, Initial residual = 0.264157, Final residual = 0.0260849, No Iterations 40
time step continuity errors : sum local = 5.42085e-05, global = -1.44063e-06, cumulative = -3.81278e-05
ExecutionTime = 520.711 s  ClockTime = 520 s

Time = 104s

diagonalPBiCGStab:  Solving for Ux, Initial residual = 0.00859383, Final residual = 0.000635948, No Iterations 4
diagonalPBiCGStab:  Solving for Uy, Initial residual = 0.0212847, Final residual = 0.0020749, No Iterations 4
diagonalPBiCGStab:  Solving for Uz, Initial residual = 0.0225919, Final residual = 0.00175766, No Iterations 4
diagonalPCG:  Solving for p, Initial residual = 0.259674, Final residual = 0.0255692, No Iterations 83
time step continuity errors : sum local = 5.25106e-05, global = -3.84317e-07, cumulative = -3.85121e-05
ExecutionTime = 522.619 s  ClockTime = 522 s

Time = 105s

diagonalPBiCGStab:  Solving for Ux, Initial residual = 0.00857989, Final residual = 0.000632373, No Iterations 4
diagonalPBiCGStab:  Solving for Uy, Initial residual = 0.020338, Final residual = 0.00153346, No Iterations 4
diagonalPBiCGStab:  Solving for Uz, Initial residual = 0.0220247, Final residual = 0.00177046, No Iterations 4
diagonalPCG:  Solving for p, Initial residual = 0.2567, Final residual = 0.0251122, No Iterations 92
time step continuity errors : sum local = 5.12235e-05, global = -7.19477e-08, cumulative = -3.8584e-05
ExecutionTime = 524.67 s  ClockTime = 524 s

Time = 106s

diagonalPBiCGStab:  Solving for Ux, Initial residual = 0.00845822, Final residual = 0.000664745, No Iterations 4
diagonalPBiCGStab:  Solving for Uy, Initial residual = 0.0194059, Final residual = 0.00159958, No Iterations 4
diagonalPBiCGStab:  Solving for Uz, Initial residual = 0.0219099, Final residual = 0.00206802, No Iterations 4
diagonalPCG:  Solving for p, Initial residual = 0.254522, Final residual = 0.02543, No Iterations 156
time step continuity errors : sum local = 5.16748e-05, global = 1.17854e-06, cumulative = -3.74055e-05
ExecutionTime = 527.447 s  ClockTime = 527 s

Time = 107s

diagonalPBiCGStab:  Solving for Ux, Initial residual = 0.00844471, Final residual = 0.000579089, No Iterations 5
diagonalPBiCGStab:  Solving for Uy, Initial residual = 0.0208676, Final residual = 0.0015823, No Iterations 4
diagonalPBiCGStab:  Solving for Uz, Initial residual = 0.0223359, Final residual = 0.00172338, No Iterations 4
diagonalPCG:  Solving for p, Initial residual = 0.251588, Final residual = 0.0251385, No Iterations 64
time step continuity errors : sum local = 5.11273e-05, global = 1.57196e-06, cumulative = -3.58335e-05
ExecutionTime = 529.175 s  ClockTime = 529 s

Time = 108s

diagonalPBiCGStab:  Solving for Ux, Initial residual = 0.00818062, Final residual = 0.000611096, No Iterations 4
diagonalPBiCGStab:  Solving for Uy, Initial residual = 0.0204835, Final residual = 0.00176947, No Iterations 4
diagonalPBiCGStab:  Solving for Uz, Initial residual = 0.0225904, Final residual = 0.00167009, No Iterations 4
diagonalPCG:  Solving for p, Initial residual = 0.247136, Final residual = 0.0246789, No Iterations 74
time step continuity errors : sum local = 4.99123e-05, global = 1.25884e-06, cumulative = -3.45747e-05
ExecutionTime = 530.995 s  ClockTime = 531 s

Time = 109s

diagonalPBiCGStab:  Solving for Ux, Initial residual = 0.00822274, Final residual = 0.000814655, No Iterations 4
diagonalPBiCGStab:  Solving for Uy, Initial residual = 0.0203837, Final residual = 0.00199766, No Iterations 4
diagonalPBiCGStab:  Solving for Uz, Initial residual = 0.0216498, Final residual = 0.00200165, No Iterations 4
diagonalPCG:  Solving for p, Initial residual = 0.2426, Final residual = 0.0241953, No Iterations 29
time step continuity errors : sum local = 4.88939e-05, global = 2.1732e-06, cumulative = -3.24015e-05
ExecutionTime = 532.263 s  ClockTime = 532 s

Time = 110s

diagonalPBiCGStab:  Solving for Ux, Initial residual = 0.00798491, Final residual = 0.00074463, No Iterations 4
diagonalPBiCGStab:  Solving for Uy, Initial residual = 0.019966, Final residual = 0.00188115, No Iterations 4
diagonalPBiCGStab:  Solving for Uz, Initial residual = 0.0209303, Final residual = 0.00180332, No Iterations 4
diagonalPCG:  Solving for p, Initial residual = 0.238196, Final residual = 0.023756, No Iterations 150
time step continuity errors : sum local = 4.79091e-05, global = -6.34155e-07, cumulative = -3.30357e-05
ExecutionTime = 534.947 s  ClockTime = 535 s

Time = 111s

diagonalPBiCGStab:  Solving for Ux, Initial residual = 0.00747695, Final residual = 0.000730575, No Iterations 4
diagonalPBiCGStab:  Solving for Uy, Initial residual = 0.019524, Final residual = 0.00191495, No Iterations 4
diagonalPBiCGStab:  Solving for Uz, Initial residual = 0.0205422, Final residual = 0.00187703, No Iterations 4
diagonalPCG:  Solving for p, Initial residual = 0.237208, Final residual = 0.0236307, No Iterations 120
time step continuity errors : sum local = 4.78005e-05, global = 4.20622e-07, cumulative = -3.2615e-05
ExecutionTime = 537.293 s  ClockTime = 537 s

Time = 112s

diagonalPBiCGStab:  Solving for Ux, Initial residual = 0.00734239, Final residual = 0.000678227, No Iterations 4
diagonalPBiCGStab:  Solving for Uy, Initial residual = 0.020629, Final residual = 0.00191483, No Iterations 4
diagonalPBiCGStab:  Solving for Uz, Initial residual = 0.0198446, Final residual = 0.00179246, No Iterations 4
diagonalPCG:  Solving for p, Initial residual = 0.234764, Final residual = 0.0233212, No Iterations 124
time step continuity errors : sum local = 4.72154e-05, global = 1.33069e-07, cumulative = -3.2482e-05
ExecutionTime = 539.665 s  ClockTime = 539 s

Time = 113s

diagonalPBiCGStab:  Solving for Ux, Initial residual = 0.00728306, Final residual = 0.000727192, No Iterations 4
diagonalPBiCGStab:  Solving for Uy, Initial residual = 0.02126, Final residual = 0.00192227, No Iterations 4
diagonalPBiCGStab:  Solving for Uz, Initial residual = 0.0196184, Final residual = 0.00177055, No Iterations 4
diagonalPCG:  Solving for p, Initial residual = 0.232932, Final residual = 0.0232173, No Iterations 45
time step continuity errors : sum local = 4.68731e-05, global = 5.05686e-07, cumulative = -3.19763e-05
ExecutionTime = 541.121 s  ClockTime = 541 s

Time = 114s

diagonalPBiCGStab:  Solving for Ux, Initial residual = 0.00711391, Final residual = 0.000412798, No Iterations 5
diagonalPBiCGStab:  Solving for Uy, Initial residual = 0.0209612, Final residual = 0.00171642, No Iterations 4
diagonalPBiCGStab:  Solving for Uz, Initial residual = 0.0194214, Final residual = 0.00168916, No Iterations 4
diagonalPCG:  Solving for p, Initial residual = 0.228758, Final residual = 0.0227371, No Iterations 101
time step continuity errors : sum local = 4.59294e-05, global = 1.55144e-06, cumulative = -3.04248e-05
ExecutionTime = 543.257 s  ClockTime = 543 s

Time = 115s

diagonalPBiCGStab:  Solving for Ux, Initial residual = 0.00693349, Final residual = 0.00047772, No Iterations 5
diagonalPBiCGStab:  Solving for Uy, Initial residual = 0.0204954, Final residual = 0.0014257, No Iterations 4
diagonalPBiCGStab:  Solving for Uz, Initial residual = 0.0195978, Final residual = 0.00173418, No Iterations 4
diagonalPCG:  Solving for p, Initial residual = 0.224226, Final residual = 0.0222846, No Iterations 34
time step continuity errors : sum local = 4.51761e-05, global = 2.85255e-06, cumulative = -2.75723e-05
ExecutionTime = 544.616 s  ClockTime = 544 s

Time = 116s

diagonalPBiCGStab:  Solving for Ux, Initial residual = 0.00665467, Final residual = 0.000603338, No Iterations 4
diagonalPBiCGStab:  Solving for Uy, Initial residual = 0.0202679, Final residual = 0.00162027, No Iterations 4
diagonalPBiCGStab:  Solving for Uz, Initial residual = 0.0193394, Final residual = 0.00166888, No Iterations 4
diagonalPCG:  Solving for p, Initial residual = 0.220824, Final residual = 0.0218226, No Iterations 59
time step continuity errors : sum local = 4.42682e-05, global = 4.33422e-06, cumulative = -2.32381e-05
ExecutionTime = 546.232 s  ClockTime = 546 s

Time = 117s

diagonalPBiCGStab:  Solving for Ux, Initial residual = 0.00649688, Final residual = 0.000593754, No Iterations 4
diagonalPBiCGStab:  Solving for Uy, Initial residual = 0.020342, Final residual = 0.00178238, No Iterations 4
diagonalPBiCGStab:  Solving for Uz, Initial residual = 0.0189584, Final residual = 0.00170883, No Iterations 4
diagonalPCG:  Solving for p, Initial residual = 0.217725, Final residual = 0.0217224, No Iterations 602
time step continuity errors : sum local = 4.42058e-05, global = 8.8803e-07, cumulative = -2.235e-05
ExecutionTime = 554.316 s  ClockTime = 554 s

Time = 118s

diagonalPBiCGStab:  Solving for Ux, Initial residual = 0.0135607, Final residual = 0.00083767, No Iterations 4
diagonalPBiCGStab:  Solving for Uy, Initial residual = 0.0223651, Final residual = 0.00168908, No Iterations 4
diagonalPBiCGStab:  Solving for Uz, Initial residual = 0.0196284, Final residual = 0.00165592, No Iterations 4
diagonalPCG:  Solving for p, Initial residual = 0.188922, Final residual = 0.018883, No Iterations 53
time step continuity errors : sum local = 5.07082e-05, global = -5.79976e-07, cumulative = -2.293e-05
ExecutionTime = 555.873 s  ClockTime = 556 s

Time = 119s

diagonalPBiCGStab:  Solving for Ux, Initial residual = 0.0131744, Final residual = 0.000724757, No Iterations 4
diagonalPBiCGStab:  Solving for Uy, Initial residual = 0.021269, Final residual = 0.00182244, No Iterations 4
diagonalPBiCGStab:  Solving for Uz, Initial residual = 0.0181133, Final residual = 0.00171934, No Iterations 4
diagonalPCG:  Solving for p, Initial residual = 0.181566, Final residual = 0.0180067, No Iterations 572
time step continuity errors : sum local = 4.88101e-05, global = -4.69667e-07, cumulative = -2.33997e-05
ExecutionTime = 563.595 s  ClockTime = 563 s

Time = 120s

diagonalPBiCGStab:  Solving for Ux, Initial residual = 0.00705431, Final residual = 0.000553005, No Iterations 4
diagonalPBiCGStab:  Solving for Uy, Initial residual = 0.020867, Final residual = 0.0016978, No Iterations 4
diagonalPBiCGStab:  Solving for Uz, Initial residual = 0.0184972, Final residual = 0.00131331, No Iterations 5
diagonalPCG:  Solving for p, Initial residual = 0.204303, Final residual = 0.0202705, No Iterations 144
time step continuity errors : sum local = 4.39799e-05, global = -2.27324e-06, cumulative = -2.56729e-05
ExecutionTime = 566.265 s  ClockTime = 566 s

Time = 121s

diagonalPBiCGStab:  Solving for Ux, Initial residual = 0.0073365, Final residual = 0.000634699, No Iterations 4
diagonalPBiCGStab:  Solving for Uy, Initial residual = 0.0196376, Final residual = 0.00176997, No Iterations 4
diagonalPBiCGStab:  Solving for Uz, Initial residual = 0.0177829, Final residual = 0.00124723, No Iterations 5
diagonalPCG:  Solving for p, Initial residual = 0.205114, Final residual = 0.0203713, No Iterations 50
time step continuity errors : sum local = 4.42974e-05, global = -6.2278e-07, cumulative = -2.62957e-05
ExecutionTime = 567.805 s  ClockTime = 567 s

Time = 122s

diagonalPBiCGStab:  Solving for Ux, Initial residual = 0.00707176, Final residual = 0.000579464, No Iterations 4
diagonalPBiCGStab:  Solving for Uy, Initial residual = 0.019462, Final residual = 0.00171495, No Iterations 4
diagonalPBiCGStab:  Solving for Uz, Initial residual = 0.0177896, Final residual = 0.00150693, No Iterations 4
diagonalPCG:  Solving for p, Initial residual = 0.198664, Final residual = 0.0196284, No Iterations 97
time step continuity errors : sum local = 4.26882e-05, global = 1.5376e-06, cumulative = -2.47581e-05
ExecutionTime = 569.857 s  ClockTime = 569 s

Time = 123s

diagonalPBiCGStab:  Solving for Ux, Initial residual = 0.00683217, Final residual = 0.000590043, No Iterations 4
diagonalPBiCGStab:  Solving for Uy, Initial residual = 0.019692, Final residual = 0.0018623, No Iterations 4
diagonalPBiCGStab:  Solving for Uz, Initial residual = 0.0178015, Final residual = 0.0015621, No Iterations 4
diagonalPCG:  Solving for p, Initial residual = 0.194729, Final residual = 0.0194262, No Iterations 36
time step continuity errors : sum local = 4.23141e-05, global = 3.97012e-06, cumulative = -2.0788e-05
ExecutionTime = 571.205 s  ClockTime = 571 s

Time = 124s

diagonalPBiCGStab:  Solving for Ux, Initial residual = 0.00661155, Final residual = 0.00055253, No Iterations 4
diagonalPBiCGStab:  Solving for Uy, Initial residual = 0.0194834, Final residual = 0.00163024, No Iterations 4
diagonalPBiCGStab:  Solving for Uz, Initial residual = 0.0172485, Final residual = 0.00147138, No Iterations 4
diagonalPCG:  Solving for p, Initial residual = 0.191402, Final residual = 0.0190661, No Iterations 564
time step continuity errors : sum local = 4.15772e-05, global = 4.19327e-08, cumulative = -2.0746e-05
ExecutionTime = 578.755 s  ClockTime = 578 s

Time = 125s

diagonalPBiCGStab:  Solving for Ux, Initial residual = 0.0135809, Final residual = 0.000790586, No Iterations 4
diagonalPBiCGStab:  Solving for Uy, Initial residual = 0.0206827, Final residual = 0.00159611, No Iterations 4
diagonalPBiCGStab:  Solving for Uz, Initial residual = 0.0176402, Final residual = 0.00141848, No Iterations 4
diagonalPCG:  Solving for p, Initial residual = 0.164827, Final residual = 0.0163256, No Iterations 56
time step continuity errors : sum local = 4.68595e-05, global = -7.89512e-07, cumulative = -2.15356e-05
ExecutionTime = 580.364 s  ClockTime = 580 s

Time = 126s

diagonalPBiCGStab:  Solving for Ux, Initial residual = 0.0131242, Final residual = 0.00106095, No Iterations 3
diagonalPBiCGStab:  Solving for Uy, Initial residual = 0.0189395, Final residual = 0.00168873, No Iterations 4
diagonalPBiCGStab:  Solving for Uz, Initial residual = 0.0163256, Final residual = 0.00150204, No Iterations 4
diagonalPCG:  Solving for p, Initial residual = 0.159712, Final residual = 0.0158492, No Iterations 105
time step continuity errors : sum local = 4.62563e-05, global = -4.42394e-06, cumulative = -2.59595e-05
ExecutionTime = 582.497 s  ClockTime = 582 s

Time = 127s

diagonalPBiCGStab:  Solving for Ux, Initial residual = 0.0126657, Final residual = 0.00116803, No Iterations 3
diagonalPBiCGStab:  Solving for Uy, Initial residual = 0.0177812, Final residual = 0.00159405, No Iterations 4
diagonalPBiCGStab:  Solving for Uz, Initial residual = 0.0166341, Final residual = 0.0015536, No Iterations 4
diagonalPCG:  Solving for p, Initial residual = 0.159454, Final residual = 0.0159422, No Iterations 502
time step continuity errors : sum local = 4.69566e-05, global = 8.56639e-07, cumulative = -2.51029e-05
ExecutionTime = 589.37 s  ClockTime = 589 s

Time = 128s

diagonalPBiCGStab:  Solving for Ux, Initial residual = 0.0077299, Final residual = 0.000737512, No Iterations 4
diagonalPBiCGStab:  Solving for Uy, Initial residual = 0.0189215, Final residual = 0.00185657, No Iterations 4
diagonalPBiCGStab:  Solving for Uz, Initial residual = 0.0175853, Final residual = 0.00149019, No Iterations 4
diagonalPCG:  Solving for p, Initial residual = 0.211687, Final residual = 0.0210674, No Iterations 83
time step continuity errors : sum local = 4.61953e-05, global = -1.33328e-06, cumulative = -2.64361e-05
ExecutionTime = 591.292 s  ClockTime = 591 s

Time = 129s

diagonalPBiCGStab:  Solving for Ux, Initial residual = 0.00709627, Final residual = 0.000616363, No Iterations 4
diagonalPBiCGStab:  Solving for Uy, Initial residual = 0.0175257, Final residual = 0.00159917, No Iterations 4
diagonalPBiCGStab:  Solving for Uz, Initial residual = 0.0167968, Final residual = 0.00148066, No Iterations 4
diagonalPCG:  Solving for p, Initial residual = 0.206796, Final residual = 0.0201855, No Iterations 94
time step continuity errors : sum local = 4.44182e-05, global = 1.07653e-06, cumulative = -2.53596e-05
ExecutionTime = 593.332 s  ClockTime = 593 s

Time = 130s

diagonalPBiCGStab:  Solving for Ux, Initial residual = 0.00661335, Final residual = 0.000592193, No Iterations 4
diagonalPBiCGStab:  Solving for Uy, Initial residual = 0.0171554, Final residual = 0.00146331, No Iterations 4
diagonalPBiCGStab:  Solving for Uz, Initial residual = 0.0161267, Final residual = 0.00136535, No Iterations 4
diagonalPCG:  Solving for p, Initial residual = 0.198771, Final residual = 0.0195798, No Iterations 163
time step continuity errors : sum local = 4.30642e-05, global = 3.12079e-06, cumulative = -2.22388e-05
ExecutionTime = 596.166 s  ClockTime = 596 s

Time = 131s

diagonalPBiCGStab:  Solving for Ux, Initial residual = 0.00579132, Final residual = 0.000576701, No Iterations 4
diagonalPBiCGStab:  Solving for Uy, Initial residual = 0.0167318, Final residual = 0.00148965, No Iterations 4
diagonalPBiCGStab:  Solving for Uz, Initial residual = 0.0159591, Final residual = 0.00140886, No Iterations 4
diagonalPCG:  Solving for p, Initial residual = 0.190535, Final residual = 0.0187722, No Iterations 108
time step continuity errors : sum local = 4.18488e-05, global = 4.80258e-06, cumulative = -1.74362e-05
ExecutionTime = 598.37 s  ClockTime = 598 s

Time = 132s

diagonalPBiCGStab:  Solving for Ux, Initial residual = 0.00576258, Final residual = 0.000549391, No Iterations 4
diagonalPBiCGStab:  Solving for Uy, Initial residual = 0.0157118, Final residual = 0.00141907, No Iterations 4
diagonalPBiCGStab:  Solving for Uz, Initial residual = 0.0154099, Final residual = 0.00133642, No Iterations 4
diagonalPCG:  Solving for p, Initial residual = 0.18628, Final residual = 0.0186019, No Iterations 552
[...]
time step continuity errors : sum local = 6.3547e-05, global = 6.55544e-07, cumulative = 5.43362e-05
ExecutionTime = 1764.01 s  ClockTime = 1764 s

Time = 468s

diagonalPBiCGStab:  Solving for Ux, Initial residual = 0.00843124, Final residual = 0.000524085, No Iterations 5
diagonalPBiCGStab:  Solving for Uy, Initial residual = 0.0232945, Final residual = 0.00212792, No Iterations 4
diagonalPBiCGStab:  Solving for Uz, Initial residual = 0.0284275, Final residual = 0.00219722, No Iterations 5
diagonalPCG:  Solving for p, Initial residual = 0.237211, Final residual = 0.0235318, No Iterations 187
time step continuity errors : sum local = 6.26308e-05, global = -1.67934e-06, cumulative = 5.26568e-05
ExecutionTime = 1767.17 s  ClockTime = 1767 s

Time = 469s

diagonalPBiCGStab:  Solving for Ux, Initial residual = 0.00764192, Final residual = 0.000595851, No Iterations 4
diagonalPBiCGStab:  Solving for Uy, Initial residual = 0.0240514, Final residual = 0.00220279, No Iterations 4
diagonalPBiCGStab:  Solving for Uz, Initial residual = 0.0287119, Final residual = 0.00281017, No Iterations 4
diagonalPCG:  Solving for p, Initial residual = 0.23341, Final residual = 0.0232998, No Iterations 78
time step continuity errors : sum local = 6.18407e-05, global = -7.54985e-06, cumulative = 4.5107e-05
ExecutionTime = 1769.04 s  ClockTime = 1769 s

Time = 470s

diagonalPBiCGStab:  Solving for Ux, Initial residual = 0.00737024, Final residual = 0.000609692, No Iterations 4
diagonalPBiCGStab:  Solving for Uy, Initial residual = 0.0238004, Final residual = 0.00207123, No Iterations 4
diagonalPBiCGStab:  Solving for Uz, Initial residual = 0.0273512, Final residual = 0.00128657, No Iterations 6
diagonalPCG:  Solving for p, Initial residual = 0.230876, Final residual = 0.0226981, No Iterations 538
time step continuity errors : sum local = 6.06468e-05, global = 9.17515e-07, cumulative = 4.60245e-05
ExecutionTime = 1776.42 s  ClockTime = 1776 s

Time = 471s

diagonalPBiCGStab:  Solving for Ux, Initial residual = 0.00884729, Final residual = 0.000756932, No Iterations 4
diagonalPBiCGStab:  Solving for Uy, Initial residual = 0.0221144, Final residual = 0.00191768, No Iterations 4
diagonalPBiCGStab:  Solving for Uz, Initial residual = 0.0312556, Final residual = 0.00220258, No Iterations 5
diagonalPCG:  Solving for p, Initial residual = 0.243984, Final residual = 0.0243475, No Iterations 148
time step continuity errors : sum local = 6.32302e-05, global = -2.58729e-06, cumulative = 4.34372e-05
ExecutionTime = 1779.11 s  ClockTime = 1779 s

Time = 472s

diagonalPBiCGStab:  Solving for Ux, Initial residual = 0.00856637, Final residual = 0.000725291, No Iterations 4
diagonalPBiCGStab:  Solving for Uy, Initial residual = 0.0200996, Final residual = 0.00191948, No Iterations 4
diagonalPBiCGStab:  Solving for Uz, Initial residual = 0.026909, Final residual = 0.00238891, No Iterations 4
diagonalPCG:  Solving for p, Initial residual = 0.239308, Final residual = 0.0236634, No Iterations 213
time step continuity errors : sum local = 6.16458e-05, global = 4.85061e-06, cumulative = 4.82878e-05
ExecutionTime = 1782.56 s  ClockTime = 1782 s

Time = 473s

diagonalPBiCGStab:  Solving for Ux, Initial residual = 0.00828659, Final residual = 0.000751355, No Iterations 4
diagonalPBiCGStab:  Solving for Uy, Initial residual = 0.0211316, Final residual = 0.00198514, No Iterations 4
diagonalPBiCGStab:  Solving for Uz, Initial residual = 0.0279038, Final residual = 0.00209789, No Iterations 6
diagonalPCG:  Solving for p, Initial residual = 0.240984, Final residual = 0.0236898, No Iterations 650
time step continuity errors : sum local = 6.09172e-05, global = -6.71548e-07, cumulative = 4.76163e-05
ExecutionTime = 1791.2 s  ClockTime = 1791 s

Time = 474s

diagonalPBiCGStab:  Solving for Ux, Initial residual = 0.0103444, Final residual = 0.000929413, No Iterations 4
diagonalPBiCGStab:  Solving for Uy, Initial residual = 0.0245769, Final residual = 0.0019525, No Iterations 4
diagonalPBiCGStab:  Solving for Uz, Initial residual = 0.0314208, Final residual = 0.00308563, No Iterations 4
diagonalPCG:  Solving for p, Initial residual = 0.230233, Final residual = 0.0230167, No Iterations 223
time step continuity errors : sum local = 6.69285e-05, global = 4.71445e-06, cumulative = 5.23307e-05
ExecutionTime = 1794.8 s  ClockTime = 1795 s

Time = 475s

diagonalPBiCGStab:  Solving for Ux, Initial residual = 0.00986211, Final residual = 0.000978043, No Iterations 3
diagonalPBiCGStab:  Solving for Uy, Initial residual = 0.0244666, Final residual = 0.00220524, No Iterations 4
diagonalPBiCGStab:  Solving for Uz, Initial residual = 0.0279398, Final residual = 0.00229549, No Iterations 4
diagonalPCG:  Solving for p, Initial residual = 0.226795, Final residual = 0.0222307, No Iterations 182
time step continuity errors : sum local = 6.47676e-05, global = -5.12579e-07, cumulative = 5.18181e-05
ExecutionTime = 1797.85 s  ClockTime = 1798 s

Time = 476s

diagonalPBiCGStab:  Solving for Ux, Initial residual = 0.00920564, Final residual = 0.000749, No Iterations 4
diagonalPBiCGStab:  Solving for Uy, Initial residual = 0.0243613, Final residual = 0.0020937, No Iterations 4
diagonalPBiCGStab:  Solving for Uz, Initial residual = 0.0280915, Final residual = 0.00223352, No Iterations 4
diagonalPCG:  Solving for p, Initial residual = 0.225289, Final residual = 0.0224639, No Iterations 87
time step continuity errors : sum local = 6.57809e-05, global = -4.19315e-06, cumulative = 4.7625e-05
ExecutionTime = 1799.82 s  ClockTime = 1800 s

Time = 477s

diagonalPBiCGStab:  Solving for Ux, Initial residual = 0.00858199, Final residual = 0.00084329, No Iterations 3
diagonalPBiCGStab:  Solving for Uy, Initial residual = 0.0219164, Final residual = 0.00203875, No Iterations 4
diagonalPBiCGStab:  Solving for Uz, Initial residual = 0.0270879, Final residual = 0.00211568, No Iterations 4
diagonalPCG:  Solving for p, Initial residual = 0.220663, Final residual = 0.0220051, No Iterations 219
time step continuity errors : sum local = 6.52562e-05, global = -6.16868e-06, cumulative = 4.14563e-05
ExecutionTime = 1803.29 s  ClockTime = 1803 s

Time = 478s

diagonalPBiCGStab:  Solving for Ux, Initial residual = 0.00894237, Final residual = 0.000888241, No Iterations 3
diagonalPBiCGStab:  Solving for Uy, Initial residual = 0.0226263, Final residual = 0.00214929, No Iterations 4
diagonalPBiCGStab:  Solving for Uz, Initial residual = 0.0275904, Final residual = 0.00222473, No Iterations 4
diagonalPCG:  Solving for p, Initial residual = 0.217704, Final residual = 0.0212709, No Iterations 518
time step continuity errors : sum local = 6.3571e-05, global = -1.54811e-07, cumulative = 4.13015e-05
ExecutionTime = 1810.37 s  ClockTime = 1810 s

Time = 479s

diagonalPBiCGStab:  Solving for Ux, Initial residual = 0.00749042, Final residual = 0.000559913, No Iterations 4
diagonalPBiCGStab:  Solving for Uy, Initial residual = 0.0214999, Final residual = 0.00190022, No Iterations 4
diagonalPBiCGStab:  Solving for Uz, Initial residual = 0.0288447, Final residual = 0.00245424, No Iterations 4
diagonalPCG:  Solving for p, Initial residual = 0.261251, Final residual = 0.0260147, No Iterations 167
time step continuity errors : sum local = 6.57767e-05, global = 3.98966e-07, cumulative = 4.17005e-05
ExecutionTime = 1813.3 s  ClockTime = 1813 s

Time = 480s

diagonalPBiCGStab:  Solving for Ux, Initial residual = 0.00695321, Final residual = 0.000508786, No Iterations 5
diagonalPBiCGStab:  Solving for Uy, Initial residual = 0.0210472, Final residual = 0.00170685, No Iterations 5
diagonalPBiCGStab:  Solving for Uz, Initial residual = 0.0265102, Final residual = 0.00214546, No Iterations 4
diagonalPCG:  Solving for p, Initial residual = 0.251598, Final residual = 0.0251306, No Iterations 582
time step continuity errors : sum local = 6.42984e-05, global = -8.03028e-07, cumulative = 4.08974e-05
ExecutionTime = 1821.15 s  ClockTime = 1821 s

Time = 481s

diagonalPBiCGStab:  Solving for Ux, Initial residual = 0.00811104, Final residual = 0.000672627, No Iterations 4
diagonalPBiCGStab:  Solving for Uy, Initial residual = 0.0233929, Final residual = 0.00215227, No Iterations 4
diagonalPBiCGStab:  Solving for Uz, Initial residual = 0.0281994, Final residual = 0.00234434, No Iterations 4
diagonalPCG:  Solving for p, Initial residual = 0.220551, Final residual = 0.0219664, No Iterations 580
time step continuity errors : sum local = 6.33707e-05, global = 1.52706e-08, cumulative = 4.09127e-05
ExecutionTime = 1829 s  ClockTime = 1829 s

Time = 482s

diagonalPBiCGStab:  Solving for Ux, Initial residual = 0.0109771, Final residual = 0.000962023, No Iterations 3
diagonalPBiCGStab:  Solving for Uy, Initial residual = 0.0232209, Final residual = 0.00178804, No Iterations 4
diagonalPBiCGStab:  Solving for Uz, Initial residual = 0.0279024, Final residual = 0.00233484, No Iterations 4
diagonalPCG:  Solving for p, Initial residual = 0.200871, Final residual = 0.0200745, No Iterations 39
time step continuity errors : sum local = 6.77509e-05, global = -3.17316e-06, cumulative = 3.77395e-05
ExecutionTime = 1830.37 s  ClockTime = 1830 s

Time = 483s

diagonalPBiCGStab:  Solving for Ux, Initial residual = 0.0104392, Final residual = 0.000812479, No Iterations 3
diagonalPBiCGStab:  Solving for Uy, Initial residual = 0.0222845, Final residual = 0.00216406, No Iterations 4
diagonalPBiCGStab:  Solving for Uz, Initial residual = 0.0257518, Final residual = 0.00206353, No Iterations 4
diagonalPCG:  Solving for p, Initial residual = 0.19679, Final residual = 0.0195717, No Iterations 590
time step continuity errors : sum local = 6.70122e-05, global = 8.63988e-07, cumulative = 3.86035e-05
ExecutionTime = 1838.32 s  ClockTime = 1838 s

Time = 484s

diagonalPBiCGStab:  Solving for Ux, Initial residual = 0.00653165, Final residual = 0.000541988, No Iterations 4
diagonalPBiCGStab:  Solving for Uy, Initial residual = 0.0208451, Final residual = 0.00202433, No Iterations 4
diagonalPBiCGStab:  Solving for Uz, Initial residual = 0.0272719, Final residual = 0.00242496, No Iterations 4
diagonalPCG:  Solving for p, Initial residual = 0.215425, Final residual = 0.0213176, No Iterations 188
time step continuity errors : sum local = 6.42657e-05, global = -5.13193e-06, cumulative = 3.34716e-05
ExecutionTime = 1841.51 s  ClockTime = 1841 s

Time = 485s

diagonalPBiCGStab:  Solving for Ux, Initial residual = 0.00694544, Final residual = 0.000588143, No Iterations 4
diagonalPBiCGStab:  Solving for Uy, Initial residual = 0.0213721, Final residual = 0.00209418, No Iterations 4
diagonalPBiCGStab:  Solving for Uz, Initial residual = 0.0260618, Final residual = 0.00198215, No Iterations 5
diagonalPCG:  Solving for p, Initial residual = 0.216201, Final residual = 0.0215169, No Iterations 221
time step continuity errors : sum local = 6.56309e-05, global = -4.89017e-06, cumulative = 2.85814e-05
ExecutionTime = 1845.07 s  ClockTime = 1845 s

Time = 486s

diagonalPBiCGStab:  Solving for Ux, Initial residual = 0.0068729, Final residual = 0.000595308, No Iterations 4
diagonalPBiCGStab:  Solving for Uy, Initial residual = 0.0205635, Final residual = 0.00201893, No Iterations 4
diagonalPBiCGStab:  Solving for Uz, Initial residual = 0.0259855, Final residual = 0.00244716, No Iterations 4
diagonalPCG:  Solving for p, Initial residual = 0.215493, Final residual = 0.021525, No Iterations 140
time step continuity errors : sum local = 6.58101e-05, global = -2.99886e-06, cumulative = 2.55826e-05
ExecutionTime = 1847.67 s  ClockTime = 1847 s

Time = 487s

diagonalPBiCGStab:  Solving for Ux, Initial residual = 0.00683281, Final residual = 0.000576936, No Iterations 4
diagonalPBiCGStab:  Solving for Uy, Initial residual = 0.0203025, Final residual = 0.00200056, No Iterations 4
diagonalPBiCGStab:  Solving for Uz, Initial residual = 0.0253704, Final residual = 0.00189691, No Iterations 5
diagonalPCG:  Solving for p, Initial residual = 0.21701, Final residual = 0.021651, No Iterations 32
time step continuity errors : sum local = 6.63724e-05, global = -4.10803e-06, cumulative = 2.14746e-05
ExecutionTime = 1848.97 s  ClockTime = 1849 s

Time = 488s

diagonalPBiCGStab:  Solving for Ux, Initial residual = 0.00663122, Final residual = 0.000557511, No Iterations 4
diagonalPBiCGStab:  Solving for Uy, Initial residual = 0.0200502, Final residual = 0.00196851, No Iterations 4
diagonalPBiCGStab:  Solving for Uz, Initial residual = 0.0249412, Final residual = 0.00218462, No Iterations 4
diagonalPCG:  Solving for p, Initial residual = 0.214979, Final residual = 0.0214082, No Iterations 180
time step continuity errors : sum local = 6.60511e-05, global = -3.59321e-07, cumulative = 2.11152e-05
ExecutionTime = 1852.05 s  ClockTime = 1852 s

Time = 489s

diagonalPBiCGStab:  Solving for Ux, Initial residual = 0.00658131, Final residual = 0.000617717, No Iterations 4
diagonalPBiCGStab:  Solving for Uy, Initial residual = 0.0207064, Final residual = 0.00159074, No Iterations 4
diagonalPBiCGStab:  Solving for Uz, Initial residual = 0.0266253, Final residual = 0.00234504, No Iterations 5
diagonalPCG:  Solving for p, Initial residual = 0.218772, Final residual = 0.0218232, No Iterations 57
time step continuity errors : sum local = 6.67867e-05, global = -9.62172e-07, cumulative = 2.01531e-05
ExecutionTime = 1853.67 s  ClockTime = 1853 s

Time = 490s

diagonalPBiCGStab:  Solving for Ux, Initial residual = 0.00654451, Final residual = 0.000497937, No Iterations 4
diagonalPBiCGStab:  Solving for Uy, Initial residual = 0.0205744, Final residual = 0.00177056, No Iterations 4
diagonalPBiCGStab:  Solving for Uz, Initial residual = 0.0257056, Final residual = 0.00213287, No Iterations 5
diagonalPCG:  Solving for p, Initial residual = 0.217112, Final residual = 0.0213841, No Iterations 221
time step continuity errors : sum local = 6.56854e-05, global = 7.30502e-07, cumulative = 2.08836e-05
ExecutionTime = 1857.23 s  ClockTime = 1857 s

Time = 491s

diagonalPBiCGStab:  Solving for Ux, Initial residual = 0.00569109, Final residual = 0.000558707, No Iterations 4
diagonalPBiCGStab:  Solving for Uy, Initial residual = 0.0203085, Final residual = 0.00132368, No Iterations 5
diagonalPBiCGStab:  Solving for Uz, Initial residual = 0.0257593, Final residual = 0.00219948, No Iterations 5
diagonalPCG:  Solving for p, Initial residual = 0.213644, Final residual = 0.0213121, No Iterations 58
time step continuity errors : sum local = 6.56728e-05, global = 1.09915e-06, cumulative = 2.19827e-05
ExecutionTime = 1858.9 s  ClockTime = 1859 s

Time = 492s

diagonalPBiCGStab:  Solving for Ux, Initial residual = 0.00561983, Final residual = 0.000554436, No Iterations 4
diagonalPBiCGStab:  Solving for Uy, Initial residual = 0.0193038, Final residual = 0.00178889, No Iterations 4
diagonalPBiCGStab:  Solving for Uz, Initial residual = 0.0245893, Final residual = 0.00236643, No Iterations 5
diagonalPCG:  Solving for p, Initial residual = 0.209633, Final residual = 0.01997, No Iterations 23
time step continuity errors : sum local = 6.17655e-05, global = 7.47799e-07, cumulative = 2.27305e-05
ExecutionTime = 1860.1 s  ClockTime = 1860 s

Time = 493s

diagonalPBiCGStab:  Solving for Ux, Initial residual = 0.00546452, Final residual = 0.000516665, No Iterations 4
diagonalPBiCGStab:  Solving for Uy, Initial residual = 0.0186461, Final residual = 0.00168991, No Iterations 4
diagonalPBiCGStab:  Solving for Uz, Initial residual = 0.0241031, Final residual = 0.00143404, No Iterations 6
diagonalPCG:  Solving for p, Initial residual = 0.205019, Final residual = 0.0204565, No Iterations 77
time step continuity errors : sum local = 6.33016e-05, global = -8.42014e-07, cumulative = 2.18885e-05
ExecutionTime = 1861.98 s  ClockTime = 1862 s

Time = 494s

diagonalPBiCGStab:  Solving for Ux, Initial residual = 0.00540529, Final residual = 0.0005189, No Iterations 4
diagonalPBiCGStab:  Solving for Uy, Initial residual = 0.0189856, Final residual = 0.00181343, No Iterations 4
diagonalPBiCGStab:  Solving for Uz, Initial residual = 0.025117, Final residual = 0.0015478, No Iterations 6
diagonalPCG:  Solving for p, Initial residual = 0.201837, Final residual = 0.0197487, No Iterations 35
time step continuity errors : sum local = 6.12138e-05, global = -3.71569e-06, cumulative = 1.81728e-05
ExecutionTime = 1863.35 s  ClockTime = 1863 s

Time = 495s

diagonalPBiCGStab:  Solving for Ux, Initial residual = 0.00531564, Final residual = 0.000503138, No Iterations 4
diagonalPBiCGStab:  Solving for Uy, Initial residual = 0.0190295, Final residual = 0.00179924, No Iterations 4
diagonalPBiCGStab:  Solving for Uz, Initial residual = 0.025418, Final residual = 0.00214025, No Iterations 4
diagonalPCG:  Solving for p, Initial residual = 0.198392, Final residual = 0.0198042, No Iterations 609
time step continuity errors : sum local = 6.16155e-05, global = 4.40668e-07, cumulative = 1.86135e-05
ExecutionTime = 1871.43 s  ClockTime = 1871 s

Time = 496s

diagonalPBiCGStab:  Solving for Ux, Initial residual = 0.00732628, Final residual = 0.000700305, No Iterations 4
diagonalPBiCGStab:  Solving for Uy, Initial residual = 0.0208193, Final residual = 0.00175677, No Iterations 4
diagonalPBiCGStab:  Solving for Uz, Initial residual = 0.0288971, Final residual = 0.00247725, No Iterations 5
diagonalPCG:  Solving for p, Initial residual = 0.243704, Final residual = 0.0242595, No Iterations 28
time step continuity errors : sum local = 6.6955e-05, global = -4.03329e-07, cumulative = 1.82102e-05
ExecutionTime = 1872.7 s  ClockTime = 1873 s

Time = 497s

diagonalPBiCGStab:  Solving for Ux, Initial residual = 0.00720311, Final residual = 0.000588435, No Iterations 4
diagonalPBiCGStab:  Solving for Uy, Initial residual = 0.0196953, Final residual = 0.00184122, No Iterations 4
diagonalPBiCGStab:  Solving for Uz, Initial residual = 0.0256458, Final residual = 0.00227352, No Iterations 4
diagonalPCG:  Solving for p, Initial residual = 0.237087, Final residual = 0.0232854, No Iterations 139
time step continuity errors : sum local = 6.47358e-05, global = 4.79099e-07, cumulative = 1.86893e-05
ExecutionTime = 1875.27 s  ClockTime = 1875 s

Time = 498s

diagonalPBiCGStab:  Solving for Ux, Initial residual = 0.00689583, Final residual = 0.000613363, No Iterations 4
diagonalPBiCGStab:  Solving for Uy, Initial residual = 0.0206619, Final residual = 0.00201457, No Iterations 4
diagonalPBiCGStab:  Solving for Uz, Initial residual = 0.026357, Final residual = 0.00260236, No Iterations 4
diagonalPCG:  Solving for p, Initial residual = 0.23067, Final residual = 0.0230471, No Iterations 239
time step continuity errors : sum local = 6.36452e-05, global = 4.35348e-06, cumulative = 2.30427e-05
ExecutionTime = 1879.01 s  ClockTime = 1879 s

Time = 499s

diagonalPBiCGStab:  Solving for Ux, Initial residual = 0.00720186, Final residual = 0.000661807, No Iterations 4
diagonalPBiCGStab:  Solving for Uy, Initial residual = 0.0218616, Final residual = 0.00186974, No Iterations 4
diagonalPBiCGStab:  Solving for Uz, Initial residual = 0.0275629, Final residual = 0.00267536, No Iterations 4
diagonalPCG:  Solving for p, Initial residual = 0.238329, Final residual = 0.0238025, No Iterations 95
time step continuity errors : sum local = 6.48177e-05, global = 5.2187e-06, cumulative = 2.82614e-05
ExecutionTime = 1881.09 s  ClockTime = 1881 s

Time = 500s

diagonalPBiCGStab:  Solving for Ux, Initial residual = 0.00715142, Final residual = 0.000654703, No Iterations 4
diagonalPBiCGStab:  Solving for Uy, Initial residual = 0.021056, Final residual = 0.00101287, No Iterations 6
diagonalPBiCGStab:  Solving for Uz, Initial residual = 0.0274102, Final residual = 0.00212694, No Iterations 5
diagonalPCG:  Solving for p, Initial residual = 0.235808, Final residual = 0.0235214, No Iterations 611
time step continuity errors : sum local = 6.43618e-05, global = -8.96164e-07, cumulative = 2.73653e-05
ExecutionTime = 1890.09 s  ClockTime = 1890 s

End

