/*---------------------------------------------------------------------------*\
  =========                 |
  \\      /  F ield         | OpenFOAM: The Open Source CFD Toolbox
   \\    /   O peration     | Website:  https://openfoam.org
    \\  /    A nd           | Version:  11
     \\/     M anipulation  |
\*---------------------------------------------------------------------------*/
Build  : 11
Exec   : foamRun -parallel
Date   : Nov 01 2024
Time   : 04:03:00
Host   : "skynet-linux"
PID    : 33324
I/O    : uncollated
Case   : /home/humberto/casesXCALibre/BFS_3D_5mm_OF11
nProcs : 8
Slaves : 
7
(
"skynet-linux.33325"
"skynet-linux.33326"
"skynet-linux.33327"
"skynet-linux.33328"
"skynet-linux.33329"
"skynet-linux.33330"
"skynet-linux.33332"
)

Pstream initialised with:
    floatTransfer      : false
    nProcsSimpleSum    : 0
    commsType          : nonBlocking
    polling iterations : 0
sigFpe : Enabling floating point exception trapping (FOAM_SIGFPE).
fileModificationChecking : Monitoring run-time modified files using timeStampMaster (fileModificationSkew 10)
allowSystemOperations : Allowing user-supplied system call operations

// * * * * * * * * * * * * * * * * * * * * * * * * * * * * * * * * * * * * * //
Create time

Create mesh for time = 0

Selecting solver incompressibleFluid
Selecting viscosity model constant
Selecting turbulence model type laminar
Selecting laminar stress model Stokes
No MRF models present


SIMPLE: Convergence criteria found
        p: tolerance 1e-07
        U: tolerance 1e-07
        "(k|epsilon|omega|f|v2)": tolerance 1e-07


SIMPLE: Operating solver in steady-state mode with 1 outer corrector
SIMPLE: Operating solver in SIMPLE mode



Starting time loop

Time = 1s

diagonalPBiCGStab:  Solving for Ux, Initial residual = 1, Final residual = 0.0793449, No Iterations 9
diagonalPBiCGStab:  Solving for Uy, Initial residual = 1, Final residual = 0.0995826, No Iterations 3
diagonalPBiCGStab:  Solving for Uz, Initial residual = 1, Final residual = 0.0757627, No Iterations 3
diagonalPCG:  Solving for p, Initial residual = 1, Final residual = 0.0979703, No Iterations 855
time step continuity errors : sum local = 2.76353e-05, global = 9.75151e-08, cumulative = 9.75151e-08
ExecutionTime = 2.43896 s  ClockTime = 3 s

Time = 2s

diagonalPBiCGStab:  Solving for Ux, Initial residual = 0.878753, Final residual = 0.0565132, No Iterations 3
diagonalPBiCGStab:  Solving for Uy, Initial residual = 0.448002, Final residual = 0.0380792, No Iterations 5
diagonalPBiCGStab:  Solving for Uz, Initial residual = 0.3807, Final residual = 0.028733, No Iterations 5
diagonalPCG:  Solving for p, Initial residual = 0.211196, Final residual = 0.0209269, No Iterations 554
time step continuity errors : sum local = 0.00180227, global = -1.98659e-05, cumulative = -1.97683e-05
ExecutionTime = 3.95161 s  ClockTime = 4 s

Time = 3s

diagonalPBiCGStab:  Solving for Ux, Initial residual = 0.269337, Final residual = 0.0258369, No Iterations 5
diagonalPBiCGStab:  Solving for Uy, Initial residual = 0.391057, Final residual = 0.0270507, No Iterations 5
diagonalPBiCGStab:  Solving for Uz, Initial residual = 0.502215, Final residual = 0.0371861, No Iterations 4
diagonalPCG:  Solving for p, Initial residual = 0.31153, Final residual = 0.0304411, No Iterations 773
time step continuity errors : sum local = 0.000528326, global = 5.05371e-06, cumulative = -1.47146e-05
ExecutionTime = 5.98899 s  ClockTime = 6 s

Time = 4s

diagonalPBiCGStab:  Solving for Ux, Initial residual = 0.513715, Final residual = 0.0429706, No Iterations 3
diagonalPBiCGStab:  Solving for Uy, Initial residual = 0.324824, Final residual = 0.0302568, No Iterations 5
diagonalPBiCGStab:  Solving for Uz, Initial residual = 0.386175, Final residual = 0.0330552, No Iterations 3
diagonalPCG:  Solving for p, Initial residual = 0.263558, Final residual = 0.0263401, No Iterations 112
time step continuity errors : sum local = 0.00138793, global = 1.85667e-05, cumulative = 3.85206e-06
ExecutionTime = 6.51498 s  ClockTime = 7 s

Time = 5s

diagonalPBiCGStab:  Solving for Ux, Initial residual = 0.611885, Final residual = 0.0584161, No Iterations 4
diagonalPBiCGStab:  Solving for Uy, Initial residual = 0.229928, Final residual = 0.0200169, No Iterations 5
diagonalPBiCGStab:  Solving for Uz, Initial residual = 0.164941, Final residual = 0.0130511, No Iterations 4
diagonalPCG:  Solving for p, Initial residual = 0.270171, Final residual = 0.0262005, No Iterations 551
time step continuity errors : sum local = 0.0013504, global = -5.02979e-06, cumulative = -1.17773e-06
ExecutionTime = 8.02804 s  ClockTime = 8 s

Time = 6s

diagonalPBiCGStab:  Solving for Ux, Initial residual = 0.326889, Final residual = 0.0119476, No Iterations 6
diagonalPBiCGStab:  Solving for Uy, Initial residual = 0.44546, Final residual = 0.024811, No Iterations 6
diagonalPBiCGStab:  Solving for Uz, Initial residual = 0.488767, Final residual = 0.0141012, No Iterations 6
diagonalPCG:  Solving for p, Initial residual = 0.64531, Final residual = 0.064207, No Iterations 756
time step continuity errors : sum local = 0.000681185, global = -4.51518e-06, cumulative = -5.69291e-06
ExecutionTime = 10.0396 s  ClockTime = 10 s

Time = 7s

diagonalPBiCGStab:  Solving for Ux, Initial residual = 0.665471, Final residual = 0.0638987, No Iterations 3
diagonalPBiCGStab:  Solving for Uy, Initial residual = 0.299149, Final residual = 0.0178686, No Iterations 6
diagonalPBiCGStab:  Solving for Uz, Initial residual = 0.366204, Final residual = 0.0273668, No Iterations 5
diagonalPCG:  Solving for p, Initial residual = 0.297425, Final residual = 0.0293923, No Iterations 351
time step continuity errors : sum local = 0.000875012, global = -6.63408e-05, cumulative = -7.20337e-05
ExecutionTime = 11.143 s  ClockTime = 11 s

Time = 8s

diagonalPBiCGStab:  Solving for Ux, Initial residual = 0.688658, Final residual = 0.0521449, No Iterations 3
diagonalPBiCGStab:  Solving for Uy, Initial residual = 0.274435, Final residual = 0.0235711, No Iterations 5
diagonalPBiCGStab:  Solving for Uz, Initial residual = 0.211993, Final residual = 0.0157479, No Iterations 5
diagonalPCG:  Solving for p, Initial residual = 0.32617, Final residual = 0.0325101, No Iterations 668
time step continuity errors : sum local = 0.000860565, global = -1.59881e-05, cumulative = -8.80218e-05
ExecutionTime = 12.9357 s  ClockTime = 13 s

Time = 9s

diagonalPBiCGStab:  Solving for Ux, Initial residual = 0.307585, Final residual = 0.0228692, No Iterations 4
diagonalPBiCGStab:  Solving for Uy, Initial residual = 0.355623, Final residual = 0.0340159, No Iterations 5
diagonalPBiCGStab:  Solving for Uz, Initial residual = 0.430987, Final residual = 0.0353311, No Iterations 5
diagonalPCG:  Solving for p, Initial residual = 0.332818, Final residual = 0.0330068, No Iterations 757
time step continuity errors : sum local = 0.000606025, global = 5.62579e-06, cumulative = -8.2396e-05
ExecutionTime = 14.944 s  ClockTime = 15 s

Time = 10s

diagonalPBiCGStab:  Solving for Ux, Initial residual = 0.427858, Final residual = 0.0324203, No Iterations 3
diagonalPBiCGStab:  Solving for Uy, Initial residual = 0.21483, Final residual = 0.0169701, No Iterations 5
diagonalPBiCGStab:  Solving for Uz, Initial residual = 0.254068, Final residual = 0.0253033, No Iterations 4
diagonalPCG:  Solving for p, Initial residual = 0.259677, Final residual = 0.0255976, No Iterations 721
time step continuity errors : sum local = 0.000854265, global = 4.2001e-06, cumulative = -7.81959e-05
ExecutionTime = 16.8228 s  ClockTime = 17 s

Time = 11s

diagonalPBiCGStab:  Solving for Ux, Initial residual = 0.271692, Final residual = 0.0188721, No Iterations 4
diagonalPBiCGStab:  Solving for Uy, Initial residual = 0.269835, Final residual = 0.0140468, No Iterations 6
diagonalPBiCGStab:  Solving for Uz, Initial residual = 0.259292, Final residual = 0.0205634, No Iterations 5
diagonalPCG:  Solving for p, Initial residual = 0.313907, Final residual = 0.0311158, No Iterations 705
time step continuity errors : sum local = 0.000557605, global = 3.32855e-06, cumulative = -7.48674e-05
ExecutionTime = 18.7113 s  ClockTime = 19 s

Time = 12s

diagonalPBiCGStab:  Solving for Ux, Initial residual = 0.463169, Final residual = 0.0459675, No Iterations 3
diagonalPBiCGStab:  Solving for Uy, Initial residual = 0.336903, Final residual = 0.0306139, No Iterations 5
diagonalPBiCGStab:  Solving for Uz, Initial residual = 0.390834, Final residual = 0.0265807, No Iterations 5
diagonalPCG:  Solving for p, Initial residual = 0.33562, Final residual = 0.0331923, No Iterations 345
time step continuity errors : sum local = 0.000671424, global = 4.09088e-05, cumulative = -3.39586e-05
ExecutionTime = 19.7601 s  ClockTime = 20 s

Time = 13s

diagonalPBiCGStab:  Solving for Ux, Initial residual = 0.583271, Final residual = 0.0443669, No Iterations 3
diagonalPBiCGStab:  Solving for Uy, Initial residual = 0.186188, Final residual = 0.0136603, No Iterations 5
diagonalPBiCGStab:  Solving for Uz, Initial residual = 0.226405, Final residual = 0.0201802, No Iterations 4
diagonalPCG:  Solving for p, Initial residual = 0.335928, Final residual = 0.0331735, No Iterations 621
time step continuity errors : sum local = 0.0005849, global = -8.14342e-06, cumulative = -4.2102e-05
ExecutionTime = 21.4257 s  ClockTime = 22 s

Time = 14s

diagonalPBiCGStab:  Solving for Ux, Initial residual = 0.30311, Final residual = 0.0283324, No Iterations 4
diagonalPBiCGStab:  Solving for Uy, Initial residual = 0.232843, Final residual = 0.0203752, No Iterations 5
diagonalPBiCGStab:  Solving for Uz, Initial residual = 0.293807, Final residual = 0.0250104, No Iterations 4
diagonalPCG:  Solving for p, Initial residual = 0.514522, Final residual = 0.0512033, No Iterations 622
time step continuity errors : sum local = 0.000426249, global = -6.75039e-06, cumulative = -4.88524e-05
ExecutionTime = 23.1021 s  ClockTime = 23 s

Time = 15s

diagonalPBiCGStab:  Solving for Ux, Initial residual = 0.223103, Final residual = 0.0167209, No Iterations 4
diagonalPBiCGStab:  Solving for Uy, Initial residual = 0.245817, Final residual = 0.0107183, No Iterations 6
diagonalPBiCGStab:  Solving for Uz, Initial residual = 0.305537, Final residual = 0.025204, No Iterations 5
diagonalPCG:  Solving for p, Initial residual = 0.365046, Final residual = 0.0364798, No Iterations 330
time step continuity errors : sum local = 0.000452408, global = -3.48843e-06, cumulative = -5.23408e-05
ExecutionTime = 24.1171 s  ClockTime = 24 s

Time = 16s

diagonalPBiCGStab:  Solving for Ux, Initial residual = 0.175252, Final residual = 0.00594959, No Iterations 5
diagonalPBiCGStab:  Solving for Uy, Initial residual = 0.153116, Final residual = 0.0113006, No Iterations 5
diagonalPBiCGStab:  Solving for Uz, Initial residual = 0.213651, Final residual = 0.0154181, No Iterations 5
diagonalPCG:  Solving for p, Initial residual = 0.361173, Final residual = 0.0358678, No Iterations 733
time step continuity errors : sum local = 0.00040831, global = -4.21879e-06, cumulative = -5.65596e-05
ExecutionTime = 26.1007 s  ClockTime = 26 s

Time = 17s

diagonalPBiCGStab:  Solving for Ux, Initial residual = 0.16989, Final residual = 0.0119513, No Iterations 4
diagonalPBiCGStab:  Solving for Uy, Initial residual = 0.198106, Final residual = 0.0149376, No Iterations 5
diagonalPBiCGStab:  Solving for Uz, Initial residual = 0.245698, Final residual = 0.0169303, No Iterations 5
diagonalPCG:  Solving for p, Initial residual = 0.71785, Final residual = 0.0706069, No Iterations 701
time step continuity errors : sum local = 0.000362815, global = 3.6003e-06, cumulative = -5.29593e-05
ExecutionTime = 28.0039 s  ClockTime = 28 s

Time = 18s

diagonalPBiCGStab:  Solving for Ux, Initial residual = 0.344412, Final residual = 0.0282291, No Iterations 3
diagonalPBiCGStab:  Solving for Uy, Initial residual = 0.196715, Final residual = 0.0158091, No Iterations 5
diagonalPBiCGStab:  Solving for Uz, Initial residual = 0.236499, Final residual = 0.00590679, No Iterations 7
diagonalPCG:  Solving for p, Initial residual = 0.386218, Final residual = 0.0383693, No Iterations 322
time step continuity errors : sum local = 0.000404381, global = -7.48613e-06, cumulative = -6.04454e-05
ExecutionTime = 29.0453 s  ClockTime = 29 s

Time = 19s

diagonalPBiCGStab:  Solving for Ux, Initial residual = 0.375376, Final residual = 0.0121205, No Iterations 5
diagonalPBiCGStab:  Solving for Uy, Initial residual = 0.147543, Final residual = 0.012179, No Iterations 5
diagonalPBiCGStab:  Solving for Uz, Initial residual = 0.200981, Final residual = 0.0182548, No Iterations 4
diagonalPCG:  Solving for p, Initial residual = 0.368392, Final residual = 0.0365419, No Iterations 750
time step continuity errors : sum local = 0.000344764, global = 2.06117e-06, cumulative = -5.83842e-05
ExecutionTime = 31.0311 s  ClockTime = 31 s

Time = 20s

diagonalPBiCGStab:  Solving for Ux, Initial residual = 0.183747, Final residual = 0.0100407, No Iterations 5
diagonalPBiCGStab:  Solving for Uy, Initial residual = 0.195693, Final residual = 0.0155904, No Iterations 5
diagonalPBiCGStab:  Solving for Uz, Initial residual = 0.244127, Final residual = 0.0196521, No Iterations 5
diagonalPCG:  Solving for p, Initial residual = 0.650934, Final residual = 0.064716, No Iterations 254
time step continuity errors : sum local = 0.000299016, global = -3.03748e-05, cumulative = -8.8759e-05
ExecutionTime = 31.8972 s  ClockTime = 32 s

Time = 21s

diagonalPBiCGStab:  Solving for Ux, Initial residual = 0.135159, Final residual = 0.0102419, No Iterations 4
diagonalPBiCGStab:  Solving for Uy, Initial residual = 0.155429, Final residual = 0.0143526, No Iterations 4
diagonalPBiCGStab:  Solving for Uz, Initial residual = 0.185214, Final residual = 0.00790565, No Iterations 6
diagonalPCG:  Solving for p, Initial residual = 0.651112, Final residual = 0.0650589, No Iterations 347
time step continuity errors : sum local = 0.000297545, global = -2.464e-05, cumulative = -0.000113399
ExecutionTime = 32.9605 s  ClockTime = 33 s

Time = 22s

diagonalPBiCGStab:  Solving for Ux, Initial residual = 0.120584, Final residual = 0.00591586, No Iterations 5
diagonalPBiCGStab:  Solving for Uy, Initial residual = 0.114304, Final residual = 0.00970821, No Iterations 5
diagonalPBiCGStab:  Solving for Uz, Initial residual = 0.176147, Final residual = 0.012643, No Iterations 5
diagonalPCG:  Solving for p, Initial residual = 0.659493, Final residual = 0.0657583, No Iterations 303
time step continuity errors : sum local = 0.000268711, global = -4.04222e-06, cumulative = -0.000117441
ExecutionTime = 33.9284 s  ClockTime = 34 s

Time = 23s

diagonalPBiCGStab:  Solving for Ux, Initial residual = 0.133028, Final residual = 0.010769, No Iterations 4
diagonalPBiCGStab:  Solving for Uy, Initial residual = 0.123637, Final residual = 0.0114435, No Iterations 4
diagonalPBiCGStab:  Solving for Uz, Initial residual = 0.164156, Final residual = 0.0135787, No Iterations 5
diagonalPCG:  Solving for p, Initial residual = 0.649541, Final residual = 0.0640673, No Iterations 239
time step continuity errors : sum local = 0.000255863, global = -4.21006e-06, cumulative = -0.000121651
ExecutionTime = 34.7582 s  ClockTime = 35 s

Time = 24s

diagonalPBiCGStab:  Solving for Ux, Initial residual = 0.155921, Final residual = 0.0122427, No Iterations 4
diagonalPBiCGStab:  Solving for Uy, Initial residual = 0.122663, Final residual = 0.00973228, No Iterations 5
diagonalPBiCGStab:  Solving for Uz, Initial residual = 0.152866, Final residual = 0.011352, No Iterations 5
diagonalPCG:  Solving for p, Initial residual = 0.61396, Final residual = 0.0613447, No Iterations 370
time step continuity errors : sum local = 0.000261563, global = 2.83918e-05, cumulative = -9.32594e-05
ExecutionTime = 35.8597 s  ClockTime = 36 s

Time = 25s

diagonalPBiCGStab:  Solving for Ux, Initial residual = 0.132849, Final residual = 0.0131133, No Iterations 4
diagonalPBiCGStab:  Solving for Uy, Initial residual = 0.11214, Final residual = 0.00940727, No Iterations 5
diagonalPBiCGStab:  Solving for Uz, Initial residual = 0.16324, Final residual = 0.00711549, No Iterations 6
diagonalPCG:  Solving for p, Initial residual = 0.589594, Final residual = 0.0587394, No Iterations 726
time step continuity errors : sum local = 0.000221808, global = 3.1425e-06, cumulative = -9.01169e-05
ExecutionTime = 37.761 s  ClockTime = 38 s

Time = 26s

diagonalPBiCGStab:  Solving for Ux, Initial residual = 0.243028, Final residual = 0.0195759, No Iterations 3
diagonalPBiCGStab:  Solving for Uy, Initial residual = 0.13629, Final residual = 0.0111839, No Iterations 4
diagonalPBiCGStab:  Solving for Uz, Initial residual = 0.174382, Final residual = 0.0125538, No Iterations 5
diagonalPCG:  Solving for p, Initial residual = 0.36152, Final residual = 0.0355591, No Iterations 240
time step continuity errors : sum local = 0.000241768, global = 3.46942e-06, cumulative = -8.66475e-05
ExecutionTime = 38.5856 s  ClockTime = 39 s

Time = 27s

diagonalPBiCGStab:  Solving for Ux, Initial residual = 0.229033, Final residual = 0.0205111, No Iterations 3
diagonalPBiCGStab:  Solving for Uy, Initial residual = 0.101202, Final residual = 0.00890086, No Iterations 4
diagonalPBiCGStab:  Solving for Uz, Initial residual = 0.125052, Final residual = 0.00564298, No Iterations 6
diagonalPCG:  Solving for p, Initial residual = 0.334053, Final residual = 0.0331563, No Iterations 630
time step continuity errors : sum local = 0.000234014, global = -7.42664e-06, cumulative = -9.40742e-05
ExecutionTime = 40.2472 s  ClockTime = 40 s

Time = 28s

diagonalPBiCGStab:  Solving for Ux, Initial residual = 0.113758, Final residual = 0.00621714, No Iterations 5
diagonalPBiCGStab:  Solving for Uy, Initial residual = 0.0816544, Final residual = 0.00657911, No Iterations 5
diagonalPBiCGStab:  Solving for Uz, Initial residual = 0.15205, Final residual = 0.0137407, No Iterations 5
diagonalPCG:  Solving for p, Initial residual = 0.621057, Final residual = 0.0607831, No Iterations 718
time step continuity errors : sum local = 0.000183789, global = -2.15019e-06, cumulative = -9.62243e-05
ExecutionTime = 42.1819 s  ClockTime = 42 s

Time = 29s

diagonalPBiCGStab:  Solving for Ux, Initial residual = 0.131282, Final residual = 0.0121247, No Iterations 3
diagonalPBiCGStab:  Solving for Uy, Initial residual = 0.0948823, Final residual = 0.0074584, No Iterations 5
diagonalPBiCGStab:  Solving for Uz, Initial residual = 0.136021, Final residual = 0.0103869, No Iterations 5
diagonalPCG:  Solving for p, Initial residual = 0.419275, Final residual = 0.0416061, No Iterations 258
time step continuity errors : sum local = 0.000212728, global = 1.49783e-05, cumulative = -8.1246e-05
ExecutionTime = 43.0426 s  ClockTime = 43 s

Time = 30s

diagonalPBiCGStab:  Solving for Ux, Initial residual = 0.151042, Final residual = 0.0112536, No Iterations 3
diagonalPBiCGStab:  Solving for Uy, Initial residual = 0.0770342, Final residual = 0.00600315, No Iterations 5
diagonalPBiCGStab:  Solving for Uz, Initial residual = 0.112142, Final residual = 0.00921263, No Iterations 5
diagonalPCG:  Solving for p, Initial residual = 0.397417, Final residual = 0.0390907, No Iterations 742
time step continuity errors : sum local = 0.000203271, global = 3.03947e-07, cumulative = -8.09421e-05
ExecutionTime = 45.0196 s  ClockTime = 45 s

Time = 31s

diagonalPBiCGStab:  Solving for Ux, Initial residual = 0.187096, Final residual = 0.0124999, No Iterations 4
diagonalPBiCGStab:  Solving for Uy, Initial residual = 0.0976899, Final residual = 0.00905404, No Iterations 5
diagonalPBiCGStab:  Solving for Uz, Initial residual = 0.166498, Final residual = 0.0139642, No Iterations 5
diagonalPCG:  Solving for p, Initial residual = 0.323857, Final residual = 0.031986, No Iterations 255
time step continuity errors : sum local = 0.000183588, global = 6.87887e-06, cumulative = -7.40632e-05
ExecutionTime = 45.8931 s  ClockTime = 46 s

Time = 32s

diagonalPBiCGStab:  Solving for Ux, Initial residual = 0.195092, Final residual = 0.010895, No Iterations 4
diagonalPBiCGStab:  Solving for Uy, Initial residual = 0.0864546, Final residual = 0.00763005, No Iterations 4
diagonalPBiCGStab:  Solving for Uz, Initial residual = 0.106231, Final residual = 0.00826954, No Iterations 5
diagonalPCG:  Solving for p, Initial residual = 0.305843, Final residual = 0.0305671, No Iterations 188
time step continuity errors : sum local = 0.000177606, global = -8.38158e-07, cumulative = -7.49014e-05
ExecutionTime = 46.6059 s  ClockTime = 47 s

Time = 33s

diagonalPBiCGStab:  Solving for Ux, Initial residual = 0.180761, Final residual = 0.0142399, No Iterations 3
diagonalPBiCGStab:  Solving for Uy, Initial residual = 0.0702542, Final residual = 0.00566213, No Iterations 4
diagonalPBiCGStab:  Solving for Uz, Initial residual = 0.0869539, Final residual = 0.00430404, No Iterations 6
diagonalPCG:  Solving for p, Initial residual = 0.278848, Final residual = 0.0277018, No Iterations 729
time step continuity errors : sum local = 0.000166291, global = -9.12761e-07, cumulative = -7.58141e-05
ExecutionTime = 48.508 s  ClockTime = 49 s

Time = 34s

diagonalPBiCGStab:  Solving for Ux, Initial residual = 0.061789, Final residual = 0.00562235, No Iterations 4
diagonalPBiCGStab:  Solving for Uy, Initial residual = 0.0603185, Final residual = 0.00289646, No Iterations 6
diagonalPBiCGStab:  Solving for Uz, Initial residual = 0.114359, Final residual = 0.00902306, No Iterations 5
diagonalPCG:  Solving for p, Initial residual = 0.573333, Final residual = 0.0568892, No Iterations 703
time step continuity errors : sum local = 0.000133922, global = -2.64972e-07, cumulative = -7.60791e-05
ExecutionTime = 50.3689 s  ClockTime = 51 s

Time = 35s

diagonalPBiCGStab:  Solving for Ux, Initial residual = 0.09254, Final residual = 0.00663723, No Iterations 4
diagonalPBiCGStab:  Solving for Uy, Initial residual = 0.0593857, Final residual = 0.00579814, No Iterations 4
diagonalPBiCGStab:  Solving for Uz, Initial residual = 0.0908832, Final residual = 0.00888401, No Iterations 4
diagonalPCG:  Solving for p, Initial residual = 0.388674, Final residual = 0.0386279, No Iterations 576
time step continuity errors : sum local = 0.00015472, global = 2.59659e-06, cumulative = -7.34825e-05
ExecutionTime = 51.9769 s  ClockTime = 52 s

Time = 36s

diagonalPBiCGStab:  Solving for Ux, Initial residual = 0.0650387, Final residual = 0.00579379, No Iterations 4
diagonalPBiCGStab:  Solving for Uy, Initial residual = 0.053841, Final residual = 0.00514479, No Iterations 4
diagonalPBiCGStab:  Solving for Uz, Initial residual = 0.0768427, Final residual = 0.00239527, No Iterations 7
diagonalPCG:  Solving for p, Initial residual = 0.491848, Final residual = 0.0488735, No Iterations 625
time step continuity errors : sum local = 0.000126325, global = 2.44921e-06, cumulative = -7.10333e-05
ExecutionTime = 53.6616 s  ClockTime = 54 s

Time = 37s

diagonalPBiCGStab:  Solving for Ux, Initial residual = 0.099774, Final residual = 0.00868475, No Iterations 3
diagonalPBiCGStab:  Solving for Uy, Initial residual = 0.0543985, Final residual = 0.0041316, No Iterations 5
diagonalPBiCGStab:  Solving for Uz, Initial residual = 0.0899827, Final residual = 0.00627194, No Iterations 5
diagonalPCG:  Solving for p, Initial residual = 0.274485, Final residual = 0.0271983, No Iterations 234
time step continuity errors : sum local = 0.000119872, global = 4.65474e-06, cumulative = -6.63786e-05
ExecutionTime = 54.483 s  ClockTime = 55 s

Time = 38s

diagonalPBiCGStab:  Solving for Ux, Initial residual = 0.0915689, Final residual = 0.00680727, No Iterations 3
diagonalPBiCGStab:  Solving for Uy, Initial residual = 0.0513323, Final residual = 0.00435288, No Iterations 4
diagonalPBiCGStab:  Solving for Uz, Initial residual = 0.0625983, Final residual = 0.00462693, No Iterations 5
diagonalPCG:  Solving for p, Initial residual = 0.258699, Final residual = 0.0257138, No Iterations 161
time step continuity errors : sum local = 0.000114258, global = -4.97462e-06, cumulative = -7.13532e-05
ExecutionTime = 55.1404 s  ClockTime = 55 s

Time = 39s

diagonalPBiCGStab:  Solving for Ux, Initial residual = 0.0862752, Final residual = 0.00843654, No Iterations 3
diagonalPBiCGStab:  Solving for Uy, Initial residual = 0.0484244, Final residual = 0.00313851, No Iterations 5
diagonalPBiCGStab:  Solving for Uz, Initial residual = 0.0575307, Final residual = 0.00501173, No Iterations 5
diagonalPCG:  Solving for p, Initial residual = 0.235746, Final residual = 0.0233883, No Iterations 615
time step continuity errors : sum local = 0.000107035, global = -9.53122e-07, cumulative = -7.23063e-05
ExecutionTime = 56.8021 s  ClockTime = 57 s

Time = 40s

diagonalPBiCGStab:  Solving for Ux, Initial residual = 0.0340499, Final residual = 0.00318348, No Iterations 4
diagonalPBiCGStab:  Solving for Uy, Initial residual = 0.0383339, Final residual = 0.00115256, No Iterations 7
diagonalPBiCGStab:  Solving for Uz, Initial residual = 0.0662523, Final residual = 0.00623703, No Iterations 5
diagonalPCG:  Solving for p, Initial residual = 0.376991, Final residual = 0.0376177, No Iterations 141
time step continuity errors : sum local = 9.33297e-05, global = -7.8014e-06, cumulative = -8.01077e-05
ExecutionTime = 57.4276 s  ClockTime = 58 s

Time = 41s

diagonalPBiCGStab:  Solving for Ux, Initial residual = 0.0339772, Final residual = 0.00271697, No Iterations 4
diagonalPBiCGStab:  Solving for Uy, Initial residual = 0.0346969, Final residual = 0.00336589, No Iterations 4
diagonalPBiCGStab:  Solving for Uz, Initial residual = 0.0514546, Final residual = 0.00394105, No Iterations 5
diagonalPCG:  Solving for p, Initial residual = 0.367898, Final residual = 0.036411, No Iterations 172
time step continuity errors : sum local = 9.11941e-05, global = -3.41028e-06, cumulative = -8.3518e-05
ExecutionTime = 58.1042 s  ClockTime = 58 s

Time = 42s

diagonalPBiCGStab:  Solving for Ux, Initial residual = 0.0333351, Final residual = 0.00313131, No Iterations 4
diagonalPBiCGStab:  Solving for Uy, Initial residual = 0.0346194, Final residual = 0.00300533, No Iterations 4
diagonalPBiCGStab:  Solving for Uz, Initial residual = 0.0469459, Final residual = 0.00447942, No Iterations 5
diagonalPCG:  Solving for p, Initial residual = 0.359027, Final residual = 0.0356956, No Iterations 149
time step continuity errors : sum local = 8.78396e-05, global = 2.28769e-06, cumulative = -8.12303e-05
ExecutionTime = 58.7313 s  ClockTime = 59 s

Time = 43s

diagonalPBiCGStab:  Solving for Ux, Initial residual = 0.026144, Final residual = 0.00215377, No Iterations 4
diagonalPBiCGStab:  Solving for Uy, Initial residual = 0.0318199, Final residual = 0.00311947, No Iterations 4
diagonalPBiCGStab:  Solving for Uz, Initial residual = 0.0465392, Final residual = 0.00340943, No Iterations 5
diagonalPCG:  Solving for p, Initial residual = 0.339038, Final residual = 0.0338603, No Iterations 130
time step continuity errors : sum local = 8.05506e-05, global = 3.45437e-06, cumulative = -7.77759e-05
ExecutionTime = 59.3298 s  ClockTime = 60 s

Time = 44s

diagonalPBiCGStab:  Solving for Ux, Initial residual = 0.0252183, Final residual = 0.00202735, No Iterations 4
diagonalPBiCGStab:  Solving for Uy, Initial residual = 0.034273, Final residual = 0.00278652, No Iterations 4
diagonalPBiCGStab:  Solving for Uz, Initial residual = 0.0433478, Final residual = 0.00425255, No Iterations 5
diagonalPCG:  Solving for p, Initial residual = 0.330609, Final residual = 0.0325104, No Iterations 103
time step continuity errors : sum local = 7.59112e-05, global = 3.6472e-06, cumulative = -7.41287e-05
ExecutionTime = 59.8611 s  ClockTime = 60 s

Time = 45s

diagonalPBiCGStab:  Solving for Ux, Initial residual = 0.0239679, Final residual = 0.00185142, No Iterations 4
diagonalPBiCGStab:  Solving for Uy, Initial residual = 0.0308213, Final residual = 0.00251093, No Iterations 5
diagonalPBiCGStab:  Solving for Uz, Initial residual = 0.0398275, Final residual = 0.00327392, No Iterations 5
diagonalPCG:  Solving for p, Initial residual = 0.316427, Final residual = 0.0313081, No Iterations 224
time step continuity errors : sum local = 7.30615e-05, global = 4.84284e-06, cumulative = -6.92859e-05
ExecutionTime = 60.6537 s  ClockTime = 61 s

Time = 46s

diagonalPBiCGStab:  Solving for Ux, Initial residual = 0.0209715, Final residual = 0.00170473, No Iterations 4
diagonalPBiCGStab:  Solving for Uy, Initial residual = 0.0247962, Final residual = 0.000787414, No Iterations 7
diagonalPBiCGStab:  Solving for Uz, Initial residual = 0.0385541, Final residual = 0.00273519, No Iterations 5
diagonalPCG:  Solving for p, Initial residual = 0.289548, Final residual = 0.0288641, No Iterations 124
time step continuity errors : sum local = 6.90183e-05, global = 2.62367e-06, cumulative = -6.66622e-05
ExecutionTime = 61.2497 s  ClockTime = 61 s

Time = 47s

diagonalPBiCGStab:  Solving for Ux, Initial residual = 0.0211761, Final residual = 0.00169498, No Iterations 4
diagonalPBiCGStab:  Solving for Uy, Initial residual = 0.0246423, Final residual = 0.0024397, No Iterations 4
diagonalPBiCGStab:  Solving for Uz, Initial residual = 0.0353286, Final residual = 0.00274726, No Iterations 5
diagonalPCG:  Solving for p, Initial residual = 0.281133, Final residual = 0.0281054, No Iterations 82
time step continuity errors : sum local = 6.82355e-05, global = -4.43934e-07, cumulative = -6.71062e-05
ExecutionTime = 61.7354 s  ClockTime = 62 s

Time = 48s

diagonalPBiCGStab:  Solving for Ux, Initial residual = 0.0191873, Final residual = 0.00153872, No Iterations 4
diagonalPBiCGStab:  Solving for Uy, Initial residual = 0.0253862, Final residual = 0.00222165, No Iterations 4
diagonalPBiCGStab:  Solving for Uz, Initial residual = 0.0353669, Final residual = 0.00324422, No Iterations 5
diagonalPCG:  Solving for p, Initial residual = 0.270731, Final residual = 0.0269369, No Iterations 109
time step continuity errors : sum local = 6.55353e-05, global = -3.22507e-06, cumulative = -7.03312e-05
ExecutionTime = 62.2719 s  ClockTime = 63 s

Time = 49s

diagonalPBiCGStab:  Solving for Ux, Initial residual = 0.0173787, Final residual = 0.00147985, No Iterations 4
diagonalPBiCGStab:  Solving for Uy, Initial residual = 0.0270001, Final residual = 0.0025292, No Iterations 4
diagonalPBiCGStab:  Solving for Uz, Initial residual = 0.0352869, Final residual = 0.00341701, No Iterations 5
diagonalPCG:  Solving for p, Initial residual = 0.263871, Final residual = 0.0260314, No Iterations 227
time step continuity errors : sum local = 6.25886e-05, global = -4.53606e-06, cumulative = -7.48673e-05
ExecutionTime = 63.08 s  ClockTime = 63 s

Time = 50s

diagonalPBiCGStab:  Solving for Ux, Initial residual = 0.0157083, Final residual = 0.00143484, No Iterations 4
diagonalPBiCGStab:  Solving for Uy, Initial residual = 0.0273123, Final residual = 0.00270356, No Iterations 5
diagonalPBiCGStab:  Solving for Uz, Initial residual = 0.0339395, Final residual = 0.00336285, No Iterations 4
diagonalPCG:  Solving for p, Initial residual = 0.276457, Final residual = 0.02753, No Iterations 82
time step continuity errors : sum local = 6.32395e-05, global = -9.35724e-06, cumulative = -8.42245e-05
ExecutionTime = 63.5628 s  ClockTime = 64 s

Time = 51s

diagonalPBiCGStab:  Solving for Ux, Initial residual = 0.0149314, Final residual = 0.00131745, No Iterations 4
diagonalPBiCGStab:  Solving for Uy, Initial residual = 0.0258681, Final residual = 0.0022021, No Iterations 4
diagonalPBiCGStab:  Solving for Uz, Initial residual = 0.0324914, Final residual = 0.00306196, No Iterations 4
diagonalPCG:  Solving for p, Initial residual = 0.267775, Final residual = 0.0265719, No Iterations 547
time step continuity errors : sum local = 6.13218e-05, global = 5.34953e-07, cumulative = -8.36896e-05
ExecutionTime = 65.0803 s  ClockTime = 65 s

Time = 52s

diagonalPBiCGStab:  Solving for Ux, Initial residual = 0.0273928, Final residual = 0.00220352, No Iterations 4
diagonalPBiCGStab:  Solving for Uy, Initial residual = 0.0231449, Final residual = 0.00183271, No Iterations 5
diagonalPBiCGStab:  Solving for Uz, Initial residual = 0.0365754, Final residual = 0.00136916, No Iterations 7
diagonalPCG:  Solving for p, Initial residual = 0.27091, Final residual = 0.0270414, No Iterations 126
time step continuity errors : sum local = 6.80278e-05, global = 1.43539e-06, cumulative = -8.22542e-05
ExecutionTime = 65.667 s  ClockTime = 66 s

Time = 53s

diagonalPBiCGStab:  Solving for Ux, Initial residual = 0.026821, Final residual = 0.0024196, No Iterations 3
diagonalPBiCGStab:  Solving for Uy, Initial residual = 0.0211238, Final residual = 0.00162244, No Iterations 5
diagonalPBiCGStab:  Solving for Uz, Initial residual = 0.0305132, Final residual = 0.00303396, No Iterations 4
diagonalPCG:  Solving for p, Initial residual = 0.262254, Final residual = 0.0260767, No Iterations 615
time step continuity errors : sum local = 6.49716e-05, global = 1.37819e-06, cumulative = -8.0876e-05
ExecutionTime = 67.3066 s  ClockTime = 68 s

Time = 54s

diagonalPBiCGStab:  Solving for Ux, Initial residual = 0.0151408, Final residual = 0.00147605, No Iterations 4
diagonalPBiCGStab:  Solving for Uy, Initial residual = 0.0233266, Final residual = 0.00195846, No Iterations 5
diagonalPBiCGStab:  Solving for Uz, Initial residual = 0.0336332, Final residual = 0.00152923, No Iterations 7
diagonalPCG:  Solving for p, Initial residual = 0.307973, Final residual = 0.0305961, No Iterations 119
time step continuity errors : sum local = 5.72514e-05, global = 6.82338e-06, cumulative = -7.40526e-05
ExecutionTime = 67.8883 s  ClockTime = 68 s

Time = 55s

diagonalPBiCGStab:  Solving for Ux, Initial residual = 0.0151036, Final residual = 0.00128338, No Iterations 4
diagonalPBiCGStab:  Solving for Uy, Initial residual = 0.0233987, Final residual = 0.00226528, No Iterations 4
diagonalPBiCGStab:  Solving for Uz, Initial residual = 0.0304303, Final residual = 0.00184008, No Iterations 6
diagonalPCG:  Solving for p, Initial residual = 0.301108, Final residual = 0.0300485, No Iterations 678
time step continuity errors : sum local = 5.57476e-05, global = -6.98028e-07, cumulative = -7.47507e-05
ExecutionTime = 69.7263 s  ClockTime = 70 s

Time = 56s

diagonalPBiCGStab:  Solving for Ux, Initial residual = 0.0197942, Final residual = 0.00185645, No Iterations 4
diagonalPBiCGStab:  Solving for Uy, Initial residual = 0.02684, Final residual = 0.00248999, No Iterations 4
diagonalPBiCGStab:  Solving for Uz, Initial residual = 0.0315097, Final residual = 0.00267199, No Iterations 5
diagonalPCG:  Solving for p, Initial residual = 0.223232, Final residual = 0.0222062, No Iterations 178
time step continuity errors : sum local = 6.08566e-05, global = -1.53837e-06, cumulative = -7.6289e-05
ExecutionTime = 70.4195 s  ClockTime = 71 s

Time = 57s

diagonalPBiCGStab:  Solving for Ux, Initial residual = 0.0183291, Final residual = 0.00170508, No Iterations 4
diagonalPBiCGStab:  Solving for Uy, Initial residual = 0.0228559, Final residual = 0.00215861, No Iterations 4
diagonalPBiCGStab:  Solving for Uz, Initial residual = 0.0289131, Final residual = 0.00241692, No Iterations 5
diagonalPCG:  Solving for p, Initial residual = 0.21785, Final residual = 0.0214557, No Iterations 551
time step continuity errors : sum local = 5.81388e-05, global = 9.35471e-08, cumulative = -7.61955e-05
ExecutionTime = 71.9161 s  ClockTime = 72 s

Time = 58s

diagonalPBiCGStab:  Solving for Ux, Initial residual = 0.0140207, Final residual = 0.00126076, No Iterations 4
diagonalPBiCGStab:  Solving for Uy, Initial residual = 0.0216346, Final residual = 0.000612031, No Iterations 7
diagonalPBiCGStab:  Solving for Uz, Initial residual = 0.0304616, Final residual = 0.00221732, No Iterations 5
diagonalPCG:  Solving for p, Initial residual = 0.303822, Final residual = 0.0302108, No Iterations 247
time step continuity errors : sum local = 5.52961e-05, global = -3.51096e-06, cumulative = -7.97064e-05
ExecutionTime = 72.7897 s  ClockTime = 73 s

Time = 59s

diagonalPBiCGStab:  Solving for Ux, Initial residual = 0.0124805, Final residual = 0.00114037, No Iterations 4
diagonalPBiCGStab:  Solving for Uy, Initial residual = 0.0192074, Final residual = 0.00165166, No Iterations 5
diagonalPBiCGStab:  Solving for Uz, Initial residual = 0.0277937, Final residual = 0.00222185, No Iterations 5
diagonalPCG:  Solving for p, Initial residual = 0.295012, Final residual = 0.0294538, No Iterations 96
time step continuity errors : sum local = 5.35774e-05, global = 8.52699e-07, cumulative = -7.88537e-05
ExecutionTime = 73.3014 s  ClockTime = 74 s

Time = 60s

diagonalPBiCGStab:  Solving for Ux, Initial residual = 0.0112237, Final residual = 0.00107342, No Iterations 4
diagonalPBiCGStab:  Solving for Uy, Initial residual = 0.0191752, Final residual = 0.0015531, No Iterations 5
diagonalPBiCGStab:  Solving for Uz, Initial residual = 0.0270424, Final residual = 0.00221157, No Iterations 5
diagonalPCG:  Solving for p, Initial residual = 0.28783, Final residual = 0.0286934, No Iterations 130
time step continuity errors : sum local = 5.20437e-05, global = 1.52105e-06, cumulative = -7.73327e-05
ExecutionTime = 73.8902 s  ClockTime = 74 s

Time = 61s

diagonalPBiCGStab:  Solving for Ux, Initial residual = 0.0110681, Final residual = 0.000991545, No Iterations 4
diagonalPBiCGStab:  Solving for Uy, Initial residual = 0.0201831, Final residual = 0.00171608, No Iterations 4
diagonalPBiCGStab:  Solving for Uz, Initial residual = 0.02645, Final residual = 0.00233566, No Iterations 5
diagonalPCG:  Solving for p, Initial residual = 0.280059, Final residual = 0.0272184, No Iterations 56
time step continuity errors : sum local = 4.95587e-05, global = 3.61862e-06, cumulative = -7.37141e-05
ExecutionTime = 74.3096 s  ClockTime = 75 s

Time = 62s

diagonalPBiCGStab:  Solving for Ux, Initial residual = 0.0110582, Final residual = 0.00107242, No Iterations 4
diagonalPBiCGStab:  Solving for Uy, Initial residual = 0.0202554, Final residual = 0.00140627, No Iterations 5
diagonalPBiCGStab:  Solving for Uz, Initial residual = 0.025922, Final residual = 0.00233271, No Iterations 4
diagonalPCG:  Solving for p, Initial residual = 0.27253, Final residual = 0.0270588, No Iterations 74
time step continuity errors : sum local = 4.9057e-05, global = 3.5583e-06, cumulative = -7.01558e-05
ExecutionTime = 74.7758 s  ClockTime = 75 s

Time = 63s

diagonalPBiCGStab:  Solving for Ux, Initial residual = 0.0112506, Final residual = 0.000967279, No Iterations 4
diagonalPBiCGStab:  Solving for Uy, Initial residual = 0.0198741, Final residual = 0.00146106, No Iterations 5
diagonalPBiCGStab:  Solving for Uz, Initial residual = 0.0263494, Final residual = 0.00251412, No Iterations 5
diagonalPCG:  Solving for p, Initial residual = 0.269125, Final residual = 0.0265508, No Iterations 560
time step continuity errors : sum local = 4.81184e-05, global = 1.36085e-06, cumulative = -6.87949e-05
ExecutionTime = 76.3734 s  ClockTime = 77 s

Time = 64s

diagonalPBiCGStab:  Solving for Ux, Initial residual = 0.0159753, Final residual = 0.00121295, No Iterations 4
diagonalPBiCGStab:  Solving for Uy, Initial residual = 0.0204292, Final residual = 0.00185769, No Iterations 4
diagonalPBiCGStab:  Solving for Uz, Initial residual = 0.0276225, Final residual = 0.00269153, No Iterations 4
diagonalPCG:  Solving for p, Initial residual = 0.201382, Final residual = 0.020108, No Iterations 52
time step continuity errors : sum local = 5.29382e-05, global = -5.39974e-07, cumulative = -6.93349e-05
ExecutionTime = 76.7865 s  ClockTime = 77 s

Time = 65s

diagonalPBiCGStab:  Solving for Ux, Initial residual = 0.0156145, Final residual = 0.00117382, No Iterations 4
diagonalPBiCGStab:  Solving for Uy, Initial residual = 0.0190588, Final residual = 0.00145144, No Iterations 5
diagonalPBiCGStab:  Solving for Uz, Initial residual = 0.0250416, Final residual = 0.00226577, No Iterations 4
diagonalPCG:  Solving for p, Initial residual = 0.196791, Final residual = 0.019567, No Iterations 91
time step continuity errors : sum local = 5.17097e-05, global = -3.91685e-06, cumulative = -7.32517e-05
ExecutionTime = 77.2926 s  ClockTime = 78 s

Time = 66s

diagonalPBiCGStab:  Solving for Ux, Initial residual = 0.015404, Final residual = 0.00149211, No Iterations 4
diagonalPBiCGStab:  Solving for Uy, Initial residual = 0.0197988, Final residual = 0.00161418, No Iterations 4
diagonalPBiCGStab:  Solving for Uz, Initial residual = 0.0254022, Final residual = 0.00188457, No Iterations 5
diagonalPCG:  Solving for p, Initial residual = 0.194729, Final residual = 0.01932, No Iterations 569
time step continuity errors : sum local = 5.13774e-05, global = 6.4465e-07, cumulative = -7.26071e-05
ExecutionTime = 78.8375 s  ClockTime = 79 s

Time = 67s

diagonalPBiCGStab:  Solving for Ux, Initial residual = 0.0141946, Final residual = 0.0011035, No Iterations 4
diagonalPBiCGStab:  Solving for Uy, Initial residual = 0.0219749, Final residual = 0.00173487, No Iterations 6
diagonalPBiCGStab:  Solving for Uz, Initial residual = 0.0277909, Final residual = 0.00238705, No Iterations 6
diagonalPCG:  Solving for p, Initial residual = 0.288003, Final residual = 0.028791, No Iterations 77
time step continuity errors : sum local = 5.21588e-05, global = -1.40273e-06, cumulative = -7.40098e-05
ExecutionTime = 79.3222 s  ClockTime = 80 s

Time = 68s

diagonalPBiCGStab:  Solving for Ux, Initial residual = 0.013258, Final residual = 0.00101653, No Iterations 4
diagonalPBiCGStab:  Solving for Uy, Initial residual = 0.0204268, Final residual = 0.00198892, No Iterations 4
diagonalPBiCGStab:  Solving for Uz, Initial residual = 0.0259016, Final residual = 0.00224939, No Iterations 4
diagonalPCG:  Solving for p, Initial residual = 0.280038, Final residual = 0.0276839, No Iterations 229
time step continuity errors : sum local = 5.02206e-05, global = 1.1154e-06, cumulative = -7.28944e-05
ExecutionTime = 80.131 s  ClockTime = 80 s

Time = 69s

diagonalPBiCGStab:  Solving for Ux, Initial residual = 0.0116592, Final residual = 0.00106249, No Iterations 4
diagonalPBiCGStab:  Solving for Uy, Initial residual = 0.0203508, Final residual = 0.00178284, No Iterations 4
diagonalPBiCGStab:  Solving for Uz, Initial residual = 0.0261443, Final residual = 0.00241881, No Iterations 4
diagonalPCG:  Solving for p, Initial residual = 0.268814, Final residual = 0.0267807, No Iterations 263
time step continuity errors : sum local = 4.89855e-05, global = 4.33829e-06, cumulative = -6.85561e-05
ExecutionTime = 81.0108 s  ClockTime = 81 s

Time = 70s

diagonalPBiCGStab:  Solving for Ux, Initial residual = 0.0116006, Final residual = 0.00101247, No Iterations 4
diagonalPBiCGStab:  Solving for Uy, Initial residual = 0.0193907, Final residual = 0.00183557, No Iterations 4
diagonalPBiCGStab:  Solving for Uz, Initial residual = 0.0251215, Final residual = 0.00230332, No Iterations 4
diagonalPCG:  Solving for p, Initial residual = 0.24394, Final residual = 0.0239341, No Iterations 566
time step continuity errors : sum local = 4.69744e-05, global = 2.0157e-06, cumulative = -6.65404e-05
ExecutionTime = 82.5761 s  ClockTime = 83 s

Time = 71s

diagonalPBiCGStab:  Solving for Ux, Initial residual = 0.0214857, Final residual = 0.0021136, No Iterations 3
diagonalPBiCGStab:  Solving for Uy, Initial residual = 0.0205992, Final residual = 0.00168942, No Iterations 5
diagonalPBiCGStab:  Solving for Uz, Initial residual = 0.0272422, Final residual = 0.0026861, No Iterations 5
diagonalPCG:  Solving for p, Initial residual = 0.17693, Final residual = 0.0176368, No Iterations 177
time step continuity errors : sum local = 5.33689e-05, global = 4.61813e-08, cumulative = -6.64942e-05
ExecutionTime = 83.2573 s  ClockTime = 83 s

Time = 72s

diagonalPBiCGStab:  Solving for Ux, Initial residual = 0.0217826, Final residual = 0.00187407, No Iterations 3
diagonalPBiCGStab:  Solving for Uy, Initial residual = 0.0223251, Final residual = 0.00161276, No Iterations 5
diagonalPBiCGStab:  Solving for Uz, Initial residual = 0.0240937, Final residual = 0.00226485, No Iterations 5
diagonalPCG:  Solving for p, Initial residual = 0.168687, Final residual = 0.0168353, No Iterations 217
time step continuity errors : sum local = 5.15818e-05, global = -5.16758e-06, cumulative = -7.16618e-05
ExecutionTime = 84.0472 s  ClockTime = 84 s

Time = 73s

diagonalPBiCGStab:  Solving for Ux, Initial residual = 0.0215743, Final residual = 0.00144005, No Iterations 4
diagonalPBiCGStab:  Solving for Uy, Initial residual = 0.0224861, Final residual = 0.00184506, No Iterations 4
diagonalPBiCGStab:  Solving for Uz, Initial residual = 0.0241445, Final residual = 0.00216483, No Iterations 4
diagonalPCG:  Solving for p, Initial residual = 0.165699, Final residual = 0.016555, No Iterations 518
time step continuity errors : sum local = 4.97907e-05, global = 9.02833e-07, cumulative = -7.0759e-05
ExecutionTime = 85.4924 s  ClockTime = 86 s

Time = 74s

diagonalPBiCGStab:  Solving for Ux, Initial residual = 0.0112791, Final residual = 0.00109634, No Iterations 4
diagonalPBiCGStab:  Solving for Uy, Initial residual = 0.0216547, Final residual = 0.00205001, No Iterations 5
diagonalPBiCGStab:  Solving for Uz, Initial residual = 0.0276314, Final residual = 0.00255837, No Iterations 5
diagonalPCG:  Solving for p, Initial residual = 0.262353, Final residual = 0.0257811, No Iterations 179
time step continuity errors : sum local = 4.75377e-05, global = -1.83861e-06, cumulative = -7.25976e-05
ExecutionTime = 86.2009 s  ClockTime = 86 s

Time = 75s

diagonalPBiCGStab:  Solving for Ux, Initial residual = 0.0102871, Final residual = 0.000884165, No Iterations 4
diagonalPBiCGStab:  Solving for Uy, Initial residual = 0.018248, Final residual = 0.001543, No Iterations 5
diagonalPBiCGStab:  Solving for Uz, Initial residual = 0.0244421, Final residual = 0.0019979, No Iterations 5
diagonalPCG:  Solving for p, Initial residual = 0.256859, Final residual = 0.0256168, No Iterations 87
time step continuity errors : sum local = 4.69405e-05, global = 2.86709e-06, cumulative = -6.97305e-05
ExecutionTime = 86.6972 s  ClockTime = 87 s

Time = 76s

diagonalPBiCGStab:  Solving for Ux, Initial residual = 0.0099229, Final residual = 0.000803804, No Iterations 4
diagonalPBiCGStab:  Solving for Uy, Initial residual = 0.017846, Final residual = 0.00161282, No Iterations 4
diagonalPBiCGStab:  Solving for Uz, Initial residual = 0.0227271, Final residual = 0.00219221, No Iterations 5
diagonalPCG:  Solving for p, Initial residual = 0.244065, Final residual = 0.0242996, No Iterations 649
time step continuity errors : sum local = 4.43543e-05, global = 1.04337e-06, cumulative = -6.86872e-05
ExecutionTime = 88.4366 s  ClockTime = 89 s

Time = 77s

diagonalPBiCGStab:  Solving for Ux, Initial residual = 0.0132273, Final residual = 0.00118975, No Iterations 4
diagonalPBiCGStab:  Solving for Uy, Initial residual = 0.0218291, Final residual = 0.00205838, No Iterations 4
diagonalPBiCGStab:  Solving for Uz, Initial residual = 0.0238681, Final residual = 0.00136553, No Iterations 6
diagonalPCG:  Solving for p, Initial residual = 0.170434, Final residual = 0.0170266, No Iterations 179
time step continuity errors : sum local = 4.35935e-05, global = 1.35765e-06, cumulative = -6.73295e-05
ExecutionTime = 89.1344 s  ClockTime = 89 s

Time = 78s

diagonalPBiCGStab:  Solving for Ux, Initial residual = 0.0131008, Final residual = 0.00102632, No Iterations 4
diagonalPBiCGStab:  Solving for Uy, Initial residual = 0.0199984, Final residual = 0.00167807, No Iterations 4
diagonalPBiCGStab:  Solving for Uz, Initial residual = 0.0217496, Final residual = 0.00105648, No Iterations 6
diagonalPCG:  Solving for p, Initial residual = 0.16336, Final residual = 0.0163101, No Iterations 219
time step continuity errors : sum local = 4.25843e-05, global = 2.45305e-07, cumulative = -6.70842e-05
ExecutionTime = 89.9328 s  ClockTime = 90 s

Time = 79s

diagonalPBiCGStab:  Solving for Ux, Initial residual = 0.0125546, Final residual = 0.000948576, No Iterations 4
diagonalPBiCGStab:  Solving for Uy, Initial residual = 0.0183525, Final residual = 0.00145251, No Iterations 5
diagonalPBiCGStab:  Solving for Uz, Initial residual = 0.022066, Final residual = 0.00151688, No Iterations 5
diagonalPCG:  Solving for p, Initial residual = 0.157556, Final residual = 0.0156975, No Iterations 200
time step continuity errors : sum local = 4.10344e-05, global = -2.08455e-06, cumulative = -6.91687e-05
ExecutionTime = 90.6764 s  ClockTime = 91 s

Time = 80s

diagonalPBiCGStab:  Solving for Ux, Initial residual = 0.0122529, Final residual = 0.000919387, No Iterations 4
diagonalPBiCGStab:  Solving for Uy, Initial residual = 0.0173428, Final residual = 0.0014057, No Iterations 5
diagonalPBiCGStab:  Solving for Uz, Initial residual = 0.0219543, Final residual = 0.00179622, No Iterations 4
diagonalPCG:  Solving for p, Initial residual = 0.158941, Final residual = 0.0158455, No Iterations 55
time step continuity errors : sum local = 4.08988e-05, global = -5.36834e-06, cumulative = -7.45371e-05
ExecutionTime = 91.0948 s  ClockTime = 91 s

Time = 81s

diagonalPBiCGStab:  Solving for Ux, Initial residual = 0.0118385, Final residual = 0.000859556, No Iterations 4
diagonalPBiCGStab:  Solving for Uy, Initial residual = 0.016877, Final residual = 0.00168236, No Iterations 4
diagonalPBiCGStab:  Solving for Uz, Initial residual = 0.0211775, Final residual = 0.00147225, No Iterations 5
diagonalPCG:  Solving for p, Initial residual = 0.157668, Final residual = 0.0154819, No Iterations 571
time step continuity errors : sum local = 4.00661e-05, global = -4.64458e-07, cumulative = -7.50015e-05
ExecutionTime = 92.6511 s  ClockTime = 93 s

Time = 82s

diagonalPBiCGStab:  Solving for Ux, Initial residual = 0.0107961, Final residual = 0.000987038, No Iterations 4
diagonalPBiCGStab:  Solving for Uy, Initial residual = 0.0177845, Final residual = 0.00176737, No Iterations 5
diagonalPBiCGStab:  Solving for Uz, Initial residual = 0.0229909, Final residual = 0.00130477, No Iterations 6
diagonalPCG:  Solving for p, Initial residual = 0.237244, Final residual = 0.0236215, No Iterations 31
time step continuity errors : sum local = 4.39677e-05, global = 1.62774e-06, cumulative = -7.33738e-05
ExecutionTime = 93.0295 s  ClockTime = 93 s

Time = 83s

diagonalPBiCGStab:  Solving for Ux, Initial residual = 0.0103082, Final residual = 0.000865367, No Iterations 4
diagonalPBiCGStab:  Solving for Uy, Initial residual = 0.0162181, Final residual = 0.0015834, No Iterations 4
diagonalPBiCGStab:  Solving for Uz, Initial residual = 0.0200285, Final residual = 0.00173947, No Iterations 4
diagonalPCG:  Solving for p, Initial residual = 0.228246, Final residual = 0.0225713, No Iterations 552
time step continuity errors : sum local = 4.20154e-05, global = 5.68712e-07, cumulative = -7.28051e-05
ExecutionTime = 94.5786 s  ClockTime = 95 s

Time = 84s

diagonalPBiCGStab:  Solving for Ux, Initial residual = 0.00771005, Final residual = 0.000637829, No Iterations 4
diagonalPBiCGStab:  Solving for Uy, Initial residual = 0.0191621, Final residual = 0.00185839, No Iterations 4
diagonalPBiCGStab:  Solving for Uz, Initial residual = 0.0205674, Final residual = 0.00172727, No Iterations 4
diagonalPCG:  Solving for p, Initial residual = 0.173532, Final residual = 0.0171119, No Iterations 32
time step continuity errors : sum local = 3.76812e-05, global = 4.2146e-06, cumulative = -6.85905e-05
ExecutionTime = 94.9449 s  ClockTime = 95 s

Time = 85s

diagonalPBiCGStab:  Solving for Ux, Initial residual = 0.00733827, Final residual = 0.000723032, No Iterations 4
diagonalPBiCGStab:  Solving for Uy, Initial residual = 0.0184108, Final residual = 0.00150901, No Iterations 4
diagonalPBiCGStab:  Solving for Uz, Initial residual = 0.0191987, Final residual = 0.00144094, No Iterations 4
diagonalPCG:  Solving for p, Initial residual = 0.169992, Final residual = 0.0169629, No Iterations 676
time step continuity errors : sum local = 3.73442e-05, global = -7.28338e-08, cumulative = -6.86633e-05
ExecutionTime = 96.7076 s  ClockTime = 97 s

Time = 86s

diagonalPBiCGStab:  Solving for Ux, Initial residual = 0.0134705, Final residual = 0.00115832, No Iterations 3
diagonalPBiCGStab:  Solving for Uy, Initial residual = 0.0166979, Final residual = 0.00166899, No Iterations 4
diagonalPBiCGStab:  Solving for Uz, Initial residual = 0.0206488, Final residual = 0.00154527, No Iterations 5
diagonalPCG:  Solving for p, Initial residual = 0.147018, Final residual = 0.0146047, No Iterations 91
time step continuity errors : sum local = 3.99937e-05, global = -2.70626e-06, cumulative = -7.13696e-05
ExecutionTime = 97.1963 s  ClockTime = 97 s

Time = 87s

diagonalPBiCGStab:  Solving for Ux, Initial residual = 0.0131453, Final residual = 0.00126529, No Iterations 3
diagonalPBiCGStab:  Solving for Uy, Initial residual = 0.0152756, Final residual = 0.00147057, No Iterations 4
diagonalPBiCGStab:  Solving for Uz, Initial residual = 0.0196012, Final residual = 0.0011413, No Iterations 5
diagonalPCG:  Solving for p, Initial residual = 0.141887, Final residual = 0.0139583, No Iterations 548
time step continuity errors : sum local = 3.87252e-05, global = 4.54009e-07, cumulative = -7.09156e-05
ExecutionTime = 98.6772 s  ClockTime = 99 s

Time = 88s

diagonalPBiCGStab:  Solving for Ux, Initial residual = 0.00793245, Final residual = 0.00062431, No Iterations 4
diagonalPBiCGStab:  Solving for Uy, Initial residual = 0.0160258, Final residual = 0.0013801, No Iterations 4
diagonalPBiCGStab:  Solving for Uz, Initial residual = 0.0203646, Final residual = 0.00182731, No Iterations 4
diagonalPCG:  Solving for p, Initial residual = 0.191839, Final residual = 0.0190127, No Iterations 88
time step continuity errors : sum local = 3.76854e-05, global = -2.73521e-06, cumulative = -7.36508e-05
ExecutionTime = 99.1688 s  ClockTime = 99 s

Time = 89s

diagonalPBiCGStab:  Solving for Ux, Initial residual = 0.00761934, Final residual = 0.00073606, No Iterations 4
diagonalPBiCGStab:  Solving for Uy, Initial residual = 0.0156429, Final residual = 0.00133566, No Iterations 4
diagonalPBiCGStab:  Solving for Uz, Initial residual = 0.0182653, Final residual = 0.00170499, No Iterations 4
diagonalPCG:  Solving for p, Initial residual = 0.189359, Final residual = 0.0187941, No Iterations 199
time step continuity errors : sum local = 3.7445e-05, global = -2.31995e-06, cumulative = -7.59707e-05
ExecutionTime = 99.8929 s  ClockTime = 100 s

Time = 90s

diagonalPBiCGStab:  Solving for Ux, Initial residual = 0.00612868, Final residual = 0.000492415, No Iterations 4
diagonalPBiCGStab:  Solving for Uy, Initial residual = 0.0161367, Final residual = 0.00135103, No Iterations 4
diagonalPBiCGStab:  Solving for Uz, Initial residual = 0.0183654, Final residual = 0.00163984, No Iterations 4
diagonalPCG:  Solving for p, Initial residual = 0.181411, Final residual = 0.017997, No Iterations 63
time step continuity errors : sum local = 3.58443e-05, global = 1.29236e-06, cumulative = -7.46784e-05
ExecutionTime = 100.32 s  ClockTime = 101 s

Time = 91s

diagonalPBiCGStab:  Solving for Ux, Initial residual = 0.00595559, Final residual = 0.000464636, No Iterations 4
diagonalPBiCGStab:  Solving for Uy, Initial residual = 0.0152989, Final residual = 0.00126549, No Iterations 4
diagonalPBiCGStab:  Solving for Uz, Initial residual = 0.0181493, Final residual = 0.00156449, No Iterations 4
diagonalPCG:  Solving for p, Initial residual = 0.176535, Final residual = 0.0174551, No Iterations 85
time step continuity errors : sum local = 3.45934e-05, global = 2.95076e-06, cumulative = -7.17276e-05
ExecutionTime = 100.793 s  ClockTime = 101 s

Time = 92s

diagonalPBiCGStab:  Solving for Ux, Initial residual = 0.00614837, Final residual = 0.000613328, No Iterations 4
diagonalPBiCGStab:  Solving for Uy, Initial residual = 0.0143941, Final residual = 0.00123705, No Iterations 4
diagonalPBiCGStab:  Solving for Uz, Initial residual = 0.0179963, Final residual = 0.00151585, No Iterations 4
diagonalPCG:  Solving for p, Initial residual = 0.173885, Final residual = 0.0173006, No Iterations 556
time step continuity errors : sum local = 3.41858e-05, global = 2.43024e-07, cumulative = -7.14846e-05
ExecutionTime = 102.326 s  ClockTime = 103 s

Time = 93s

diagonalPBiCGStab:  Solving for Ux, Initial residual = 0.00905863, Final residual = 0.000722406, No Iterations 4
diagonalPBiCGStab:  Solving for Uy, Initial residual = 0.0149183, Final residual = 0.00143409, No Iterations 4
diagonalPBiCGStab:  Solving for Uz, Initial residual = 0.0182412, Final residual = 0.00138295, No Iterations 4
diagonalPCG:  Solving for p, Initial residual = 0.144382, Final residual = 0.0142934, No Iterations 48
time step continuity errors : sum local = 3.59496e-05, global = -4.18623e-08, cumulative = -7.15265e-05
ExecutionTime = 102.72 s  ClockTime = 103 s

Time = 94s

diagonalPBiCGStab:  Solving for Ux, Initial residual = 0.00877907, Final residual = 0.000632447, No Iterations 4
diagonalPBiCGStab:  Solving for Uy, Initial residual = 0.0142439, Final residual = 0.0012275, No Iterations 4
diagonalPBiCGStab:  Solving for Uz, Initial residual = 0.0173101, Final residual = 0.00139408, No Iterations 4
diagonalPCG:  Solving for p, Initial residual = 0.141299, Final residual = 0.0141166, No Iterations 187
time step continuity errors : sum local = 3.57146e-05, global = -2.50439e-06, cumulative = -7.40308e-05
ExecutionTime = 103.418 s  ClockTime = 104 s

Time = 95s

diagonalPBiCGStab:  Solving for Ux, Initial residual = 0.00837508, Final residual = 0.00066499, No Iterations 4
diagonalPBiCGStab:  Solving for Uy, Initial residual = 0.0145676, Final residual = 0.00122245, No Iterations 4
diagonalPBiCGStab:  Solving for Uz, Initial residual = 0.017548, Final residual = 0.00142185, No Iterations 4
diagonalPCG:  Solving for p, Initial residual = 0.140422, Final residual = 0.0139449, No Iterations 46
time step continuity errors : sum local = 3.55537e-05, global = -6.74756e-06, cumulative = -8.07784e-05
ExecutionTime = 103.806 s  ClockTime = 104 s

Time = 96s

diagonalPBiCGStab:  Solving for Ux, Initial residual = 0.00812053, Final residual = 0.000604662, No Iterations 4
diagonalPBiCGStab:  Solving for Uy, Initial residual = 0.0144645, Final residual = 0.00115355, No Iterations 4
diagonalPBiCGStab:  Solving for Uz, Initial residual = 0.0178205, Final residual = 0.00137648, No Iterations 4
diagonalPCG:  Solving for p, Initial residual = 0.141084, Final residual = 0.0139982, No Iterations 532
time step continuity errors : sum local = 3.59e-05, global = 2.32274e-07, cumulative = -8.05461e-05
ExecutionTime = 105.284 s  ClockTime = 106 s

Time = 97s

diagonalPBiCGStab:  Solving for Ux, Initial residual = 0.0116082, Final residual = 0.000833379, No Iterations 4
diagonalPBiCGStab:  Solving for Uy, Initial residual = 0.0161823, Final residual = 0.00137402, No Iterations 4
diagonalPBiCGStab:  Solving for Uz, Initial residual = 0.0205057, Final residual = 0.00163426, No Iterations 4
diagonalPCG:  Solving for p, Initial residual = 0.205524, Final residual = 0.0204641, No Iterations 67
time step continuity errors : sum local = 4.22078e-05, global = 6.22114e-07, cumulative = -7.9924e-05
ExecutionTime = 105.724 s  ClockTime = 106 s

Time = 98s

diagonalPBiCGStab:  Solving for Ux, Initial residual = 0.0114283, Final residual = 0.000673096, No Iterations 4
diagonalPBiCGStab:  Solving for Uy, Initial residual = 0.0140896, Final residual = 0.00122715, No Iterations 4
diagonalPBiCGStab:  Solving for Uz, Initial residual = 0.0180432, Final residual = 0.0014704, No Iterations 4
diagonalPCG:  Solving for p, Initial residual = 0.200311, Final residual = 0.0198919, No Iterations 683
time step continuity errors : sum local = 4.09968e-05, global = -3.82392e-07, cumulative = -8.03064e-05
ExecutionTime = 107.55 s  ClockTime = 108 s

Time = 99s

diagonalPBiCGStab:  Solving for Ux, Initial residual = 0.00574713, Final residual = 0.000487946, No Iterations 4
diagonalPBiCGStab:  Solving for Uy, Initial residual = 0.0147119, Final residual = 0.00124469, No Iterations 4
diagonalPBiCGStab:  Solving for Uz, Initial residual = 0.019064, Final residual = 0.00184959, No Iterations 4
diagonalPCG:  Solving for p, Initial residual = 0.178828, Final residual = 0.0177849, No Iterations 550
time step continuity errors : sum local = 3.61757e-05, global = 2.20341e-07, cumulative = -8.00861e-05
ExecutionTime = 109.05 s  ClockTime = 109 s

Time = 100s

diagonalPBiCGStab:  Solving for Ux, Initial residual = 0.0088383, Final residual = 0.000671699, No Iterations 4
diagonalPBiCGStab:  Solving for Uy, Initial residual = 0.0147003, Final residual = 0.0011273, No Iterations 4
diagonalPBiCGStab:  Solving for Uz, Initial residual = 0.0191625, Final residual = 0.00189388, No Iterations 4
diagonalPCG:  Solving for p, Initial residual = 0.156908, Final residual = 0.0156689, No Iterations 188
time step continuity errors : sum local = 3.99566e-05, global = -4.41094e-07, cumulative = -8.05272e-05
ExecutionTime = 109.768 s  ClockTime = 110 s

Time = 101s

diagonalPBiCGStab:  Solving for Ux, Initial residual = 0.00841873, Final residual = 0.00060465, No Iterations 4
diagonalPBiCGStab:  Solving for Uy, Initial residual = 0.0153547, Final residual = 0.00132475, No Iterations 4
diagonalPBiCGStab:  Solving for Uz, Initial residual = 0.0188332, Final residual = 0.00182734, No Iterations 4
diagonalPCG:  Solving for p, Initial residual = 0.154784, Final residual = 0.0153158, No Iterations 235
time step continuity errors : sum local = 3.88025e-05, global = -2.92787e-06, cumulative = -8.3455e-05
ExecutionTime = 110.586 s  ClockTime = 111 s

Time = 102s

diagonalPBiCGStab:  Solving for Ux, Initial residual = 0.00883673, Final residual = 0.000651063, No Iterations 4
diagonalPBiCGStab:  Solving for Uy, Initial residual = 0.0157607, Final residual = 0.00139428, No Iterations 4
diagonalPBiCGStab:  Solving for Uz, Initial residual = 0.0189348, Final residual = 0.00171325, No Iterations 4
diagonalPCG:  Solving for p, Initial residual = 0.16216, Final residual = 0.0160858, No Iterations 392
time step continuity errors : sum local = 3.88237e-05, global = 1.05307e-07, cumulative = -8.33497e-05
ExecutionTime = 111.722 s  ClockTime = 112 s

Time = 103s

diagonalPBiCGStab:  Solving for Ux, Initial residual = 0.0115467, Final residual = 0.00103455, No Iterations 3
diagonalPBiCGStab:  Solving for Uy, Initial residual = 0.0162285, Final residual = 0.0013619, No Iterations 4
diagonalPBiCGStab:  Solving for Uz, Initial residual = 0.0206531, Final residual = 0.00162366, No Iterations 4
diagonalPCG:  Solving for p, Initial residual = 0.218292, Final residual = 0.0218259, No Iterations 220
time step continuity errors : sum local = 4.31943e-05, global = -2.19159e-06, cumulative = -8.55413e-05
ExecutionTime = 112.502 s  ClockTime = 113 s

Time = 104s

diagonalPBiCGStab:  Solving for Ux, Initial residual = 0.010364, Final residual = 0.000875235, No Iterations 3
diagonalPBiCGStab:  Solving for Uy, Initial residual = 0.0140745, Final residual = 0.00113457, No Iterations 4
diagonalPBiCGStab:  Solving for Uz, Initial residual = 0.0194785, Final residual = 0.00178449, No Iterations 4
diagonalPCG:  Solving for p, Initial residual = 0.215946, Final residual = 0.0211694, No Iterations 214
time step continuity errors : sum local = 4.11954e-05, global = 3.38114e-06, cumulative = -8.21602e-05
ExecutionTime = 113.276 s  ClockTime = 114 s

Time = 105s

diagonalPBiCGStab:  Solving for Ux, Initial residual = 0.0103052, Final residual = 0.000715524, No Iterations 4
diagonalPBiCGStab:  Solving for Uy, Initial residual = 0.0134773, Final residual = 0.00102568, No Iterations 4
diagonalPBiCGStab:  Solving for Uz, Initial residual = 0.0198629, Final residual = 0.001813, No Iterations 4
diagonalPCG:  Solving for p, Initial residual = 0.217745, Final residual = 0.0215651, No Iterations 396
time step continuity errors : sum local = 4.04458e-05, global = 2.55234e-07, cumulative = -8.19049e-05
ExecutionTime = 114.44 s  ClockTime = 115 s

Time = 106s

diagonalPBiCGStab:  Solving for Ux, Initial residual = 0.00941674, Final residual = 0.000780834, No Iterations 4
diagonalPBiCGStab:  Solving for Uy, Initial residual = 0.0150817, Final residual = 0.000390576, No Iterations 7
diagonalPBiCGStab:  Solving for Uz, Initial residual = 0.0214873, Final residual = 0.00168297, No Iterations 4
diagonalPCG:  Solving for p, Initial residual = 0.17673, Final residual = 0.017612, No Iterations 218
time step continuity errors : sum local = 4.28432e-05, global = 2.86895e-06, cumulative = -7.9036e-05
ExecutionTime = 115.236 s  ClockTime = 115 s

Time = 107s

diagonalPBiCGStab:  Solving for Ux, Initial residual = 0.00830575, Final residual = 0.000706023, No Iterations 4
diagonalPBiCGStab:  Solving for Uy, Initial residual = 0.0158269, Final residual = 0.00120452, No Iterations 4
diagonalPBiCGStab:  Solving for Uz, Initial residual = 0.0204014, Final residual = 0.00191311, No Iterations 4
diagonalPCG:  Solving for p, Initial residual = 0.170397, Final residual = 0.0169625, No Iterations 95
time step continuity errors : sum local = 4.14142e-05, global = -1.69273e-06, cumulative = -8.07287e-05
ExecutionTime = 115.733 s  ClockTime = 116 s

Time = 108s

diagonalPBiCGStab:  Solving for Ux, Initial residual = 0.00814806, Final residual = 0.000621345, No Iterations 4
diagonalPBiCGStab:  Solving for Uy, Initial residual = 0.0165684, Final residual = 0.0012646, No Iterations 4
diagonalPBiCGStab:  Solving for Uz, Initial residual = 0.0200356, Final residual = 0.00157589, No Iterations 4
diagonalPCG:  Solving for p, Initial residual = 0.168605, Final residual = 0.0168409, No Iterations 35
time step continuity errors : sum local = 4.10036e-05, global = -4.49724e-06, cumulative = -8.5226e-05
ExecutionTime = 116.098 s  ClockTime = 116 s

Time = 109s

diagonalPBiCGStab:  Solving for Ux, Initial residual = 0.00801093, Final residual = 0.000593767, No Iterations 4
diagonalPBiCGStab:  Solving for Uy, Initial residual = 0.0160568, Final residual = 0.00120506, No Iterations 4
diagonalPBiCGStab:  Solving for Uz, Initial residual = 0.0199411, Final residual = 0.00142941, No Iterations 4
diagonalPCG:  Solving for p, Initial residual = 0.166636, Final residual = 0.016565, No Iterations 585
time step continuity errors : sum local = 4.05573e-05, global = -5.6488e-07, cumulative = -8.57908e-05
ExecutionTime = 117.693 s  ClockTime = 118 s

Time = 110s

diagonalPBiCGStab:  Solving for Ux, Initial residual = 0.00982094, Final residual = 0.000747955, No Iterations 4
diagonalPBiCGStab:  Solving for Uy, Initial residual = 0.0138754, Final residual = 0.00125528, No Iterations 4
diagonalPBiCGStab:  Solving for Uz, Initial residual = 0.0213122, Final residual = 0.00162422, No Iterations 4
diagonalPCG:  Solving for p, Initial residual = 0.242865, Final residual = 0.0242154, No Iterations 82
time step continuity errors : sum local = 4.38154e-05, global = -1.57716e-06, cumulative = -8.7368e-05
ExecutionTime = 118.162 s  ClockTime = 118 s

Time = 111s

diagonalPBiCGStab:  Solving for Ux, Initial residual = 0.00950403, Final residual = 0.000696688, No Iterations 4
diagonalPBiCGStab:  Solving for Uy, Initial residual = 0.0118844, Final residual = 0.000910374, No Iterations 4
diagonalPBiCGStab:  Solving for Uz, Initial residual = 0.0199803, Final residual = 0.00170226, No Iterations 4
diagonalPCG:  Solving for p, Initial residual = 0.240046, Final residual = 0.0237201, No Iterations 165
time step continuity errors : sum local = 4.29932e-05, global = 2.9189e-06, cumulative = -8.44491e-05
ExecutionTime = 118.821 s  ClockTime = 119 s

Time = 112s

diagonalPBiCGStab:  Solving for Ux, Initial residual = 0.00874243, Final residual = 0.000678671, No Iterations 4
diagonalPBiCGStab:  Solving for Uy, Initial residual = 0.0135933, Final residual = 0.00126701, No Iterations 4
diagonalPBiCGStab:  Solving for Uz, Initial residual = 0.0205198, Final residual = 0.00180783, No Iterations 4
diagonalPCG:  Solving for p, Initial residual = 0.235622, Final residual = 0.0234912, No Iterations 258
time step continuity errors : sum local = 4.18984e-05, global = 2.76526e-06, cumulative = -8.16838e-05
ExecutionTime = 119.69 s  ClockTime = 120 s

Time = 113s

diagonalPBiCGStab:  Solving for Ux, Initial residual = 0.00818129, Final residual = 0.000689982, No Iterations 4
diagonalPBiCGStab:  Solving for Uy, Initial residual = 0.0149037, Final residual = 0.00142653, No Iterations 4
diagonalPBiCGStab:  Solving for Uz, Initial residual = 0.0202657, Final residual = 0.00196597, No Iterations 4
diagonalPCG:  Solving for p, Initial residual = 0.222137, Final residual = 0.0221126, No Iterations 543
time step continuity errors : sum local = 4.18446e-05, global = 2.41281e-07, cumulative = -8.14426e-05
ExecutionTime = 121.174 s  ClockTime = 121 s

Time = 114s

diagonalPBiCGStab:  Solving for Ux, Initial residual = 0.0108394, Final residual = 0.000806877, No Iterations 4
diagonalPBiCGStab:  Solving for Uy, Initial residual = 0.0169627, Final residual = 0.00128537, No Iterations 5
diagonalPBiCGStab:  Solving for Uz, Initial residual = 0.0219073, Final residual = 0.00174219, No Iterations 4
diagonalPCG:  Solving for p, Initial residual = 0.167024, Final residual = 0.0166801, No Iterations 203
time step continuity errors : sum local = 4.58704e-05, global = 4.15265e-07, cumulative = -8.10273e-05
ExecutionTime = 121.929 s  ClockTime = 122 s

Time = 115s

diagonalPBiCGStab:  Solving for Ux, Initial residual = 0.0115539, Final residual = 0.000754632, No Iterations 4
diagonalPBiCGStab:  Solving for Uy, Initial residual = 0.0162518, Final residual = 0.00133172, No Iterations 5
diagonalPBiCGStab:  Solving for Uz, Initial residual = 0.0214484, Final residual = 0.0019769, No Iterations 4
diagonalPCG:  Solving for p, Initial residual = 0.167263, Final residual = 0.0166621, No Iterations 80
time step continuity errors : sum local = 4.56169e-05, global = -6.32165e-06, cumulative = -8.7349e-05
ExecutionTime = 122.398 s  ClockTime = 123 s

Time = 116s

diagonalPBiCGStab:  Solving for Ux, Initial residual = 0.0113886, Final residual = 0.000686481, No Iterations 4
diagonalPBiCGStab:  Solving for Uy, Initial residual = 0.0139961, Final residual = 0.00139282, No Iterations 4
diagonalPBiCGStab:  Solving for Uz, Initial residual = 0.0207123, Final residual = 0.00190833, No Iterations 4
diagonalPCG:  Solving for p, Initial residual = 0.162712, Final residual = 0.0160851, No Iterations 512
time step continuity errors : sum local = 4.46019e-05, global = 6.28511e-07, cumulative = -8.67204e-05
ExecutionTime = 123.816 s  ClockTime = 124 s

Time = 117s

diagonalPBiCGStab:  Solving for Ux, Initial residual = 0.0138017, Final residual = 0.00122182, No Iterations 3
diagonalPBiCGStab:  Solving for Uy, Initial residual = 0.0158137, Final residual = 0.000906899, No Iterations 6
diagonalPBiCGStab:  Solving for Uz, Initial residual = 0.0239736, Final residual = 0.000685671, No Iterations 7
diagonalPCG:  Solving for p, Initial residual = 0.224726, Final residual = 0.0223731, No Iterations 235
time step continuity errors : sum local = 5.07571e-05, global = -4.73436e-06, cumulative = -9.14548e-05
ExecutionTime = 124.638 s  ClockTime = 125 s

Time = 118s

diagonalPBiCGStab:  Solving for Ux, Initial residual = 0.0145222, Final residual = 0.0010852, No Iterations 3
diagonalPBiCGStab:  Solving for Uy, Initial residual = 0.0138029, Final residual = 0.00130533, No Iterations 4
diagonalPBiCGStab:  Solving for Uz, Initial residual = 0.0213921, Final residual = 0.00190641, No Iterations 4
diagonalPCG:  Solving for p, Initial residual = 0.219569, Final residual = 0.0216364, No Iterations 75
time step continuity errors : sum local = 4.96208e-05, global = 1.56352e-06, cumulative = -8.98913e-05
ExecutionTime = 125.091 s  ClockTime = 125 s

Time = 119s

diagonalPBiCGStab:  Solving for Ux, Initial residual = 0.0143166, Final residual = 0.000800749, No Iterations 4
diagonalPBiCGStab:  Solving for Uy, Initial residual = 0.0148657, Final residual = 0.00140707, No Iterations 4
diagonalPBiCGStab:  Solving for Uz, Initial residual = 0.0211596, Final residual = 0.00172054, No Iterations 4
diagonalPCG:  Solving for p, Initial residual = 0.215362, Final residual = 0.0213911, No Iterations 642
time step continuity errors : sum local = 4.75716e-05, global = -7.37779e-07, cumulative = -9.06291e-05
ExecutionTime = 126.796 s  ClockTime = 127 s

Time = 120s

diagonalPBiCGStab:  Solving for Ux, Initial residual = 0.00676061, Final residual = 0.000575805, No Iterations 4
diagonalPBiCGStab:  Solving for Uy, Initial residual = 0.0155159, Final residual = 0.00137964, No Iterations 4
diagonalPBiCGStab:  Solving for Uz, Initial residual = 0.0228107, Final residual = 0.000566922, No Iterations 7
diagonalPCG:  Solving for p, Initial residual = 0.232846, Final residual = 0.0229277, No Iterations 42
time step continuity errors : sum local = 4.33082e-05, global = 1.75909e-06, cumulative = -8.887e-05
ExecutionTime = 127.199 s  ClockTime = 127 s

Time = 121s

diagonalPBiCGStab:  Solving for Ux, Initial residual = 0.00625413, Final residual = 0.00059987, No Iterations 4
diagonalPBiCGStab:  Solving for Uy, Initial residual = 0.0140538, Final residual = 0.00117036, No Iterations 5
diagonalPBiCGStab:  Solving for Uz, Initial residual = 0.0210966, Final residual = 0.00147814, No Iterations 5
diagonalPCG:  Solving for p, Initial residual = 0.232328, Final residual = 0.0227559, No Iterations 185
time step continuity errors : sum local = 4.26352e-05, global = 2.70033e-06, cumulative = -8.61696e-05
ExecutionTime = 127.907 s  ClockTime = 128 s

Time = 122s

diagonalPBiCGStab:  Solving for Ux, Initial residual = 0.00753715, Final residual = 0.000660764, No Iterations 4
diagonalPBiCGStab:  Solving for Uy, Initial residual = 0.0137345, Final residual = 0.00108308, No Iterations 4
diagonalPBiCGStab:  Solving for Uz, Initial residual = 0.0212767, Final residual = 0.00158374, No Iterations 4
diagonalPCG:  Solving for p, Initial residual = 0.230906, Final residual = 0.0228716, No Iterations 40
time step continuity errors : sum local = 4.27137e-05, global = -2.70765e-07, cumulative = -8.64404e-05
ExecutionTime = 128.289 s  ClockTime = 129 s

Time = 123s

diagonalPBiCGStab:  Solving for Ux, Initial residual = 0.00746748, Final residual = 0.000658784, No Iterations 4
diagonalPBiCGStab:  Solving for Uy, Initial residual = 0.0129616, Final residual = 0.00116273, No Iterations 4
diagonalPBiCGStab:  Solving for Uz, Initial residual = 0.0206985, Final residual = 0.00190225, No Iterations 4
diagonalPCG:  Solving for p, Initial residual = 0.229121, Final residual = 0.0228731, No Iterations 92
time step continuity errors : sum local = 4.27808e-05, global = -9.49887e-07, cumulative = -8.73903e-05
ExecutionTime = 128.778 s  ClockTime = 129 s

Time = 124s

diagonalPBiCGStab:  Solving for Ux, Initial residual = 0.00731261, Final residual = 0.000635215, No Iterations 4
diagonalPBiCGStab:  Solving for Uy, Initial residual = 0.0126983, Final residual = 0.00116514, No Iterations 4
diagonalPBiCGStab:  Solving for Uz, Initial residual = 0.0205416, Final residual = 0.00186887, No Iterations 4
diagonalPCG:  Solving for p, Initial residual = 0.229128, Final residual = 0.0227862, No Iterations 33
time step continuity errors : sum local = 4.2609e-05, global = -3.1675e-07, cumulative = -8.7707e-05
ExecutionTime = 129.137 s  ClockTime = 129 s

Time = 125s

diagonalPBiCGStab:  Solving for Ux, Initial residual = 0.00708533, Final residual = 0.000688968, No Iterations 4
diagonalPBiCGStab:  Solving for Uy, Initial residual = 0.0124731, Final residual = 0.000906478, No Iterations 4
diagonalPBiCGStab:  Solving for Uz, Initial residual = 0.0200626, Final residual = 0.00178373, No Iterations 4
diagonalPCG:  Solving for p, Initial residual = 0.228937, Final residual = 0.0227023, No Iterations 159
time step continuity errors : sum local = 4.24606e-05, global = 1.33187e-07, cumulative = -8.75739e-05
ExecutionTime = 129.78 s  ClockTime = 130 s

Time = 126s

diagonalPBiCGStab:  Solving for Ux, Initial residual = 0.00754522, Final residual = 0.000683212, No Iterations 4
diagonalPBiCGStab:  Solving for Uy, Initial residual = 0.0144754, Final residual = 0.000792916, No Iterations 6
diagonalPBiCGStab:  Solving for Uz, Initial residual = 0.0204613, Final residual = 0.00144466, No Iterations 5
diagonalPCG:  Solving for p, Initial residual = 0.2331, Final residual = 0.0226505, No Iterations 27
time step continuity errors : sum local = 4.19533e-05, global = 1.3231e-06, cumulative = -8.62508e-05
ExecutionTime = 130.145 s  ClockTime = 130 s

Time = 127s

diagonalPBiCGStab:  Solving for Ux, Initial residual = 0.00740759, Final residual = 0.000624511, No Iterations 4
diagonalPBiCGStab:  Solving for Uy, Initial residual = 0.0140794, Final residual = 0.00116636, No Iterations 4
diagonalPBiCGStab:  Solving for Uz, Initial residual = 0.0191411, Final residual = 0.00177355, No Iterations 4
diagonalPCG:  Solving for p, Initial residual = 0.228638, Final residual = 0.0226053, No Iterations 163
time step continuity errors : sum local = 4.18027e-05, global = 4.59188e-06, cumulative = -8.16589e-05
ExecutionTime = 130.796 s  ClockTime = 131 s

Time = 128s

diagonalPBiCGStab:  Solving for Ux, Initial residual = 0.00678147, Final residual = 0.000627014, No Iterations 4
diagonalPBiCGStab:  Solving for Uy, Initial residual = 0.0119819, Final residual = 0.000744872, No Iterations 5
diagonalPBiCGStab:  Solving for Uz, Initial residual = 0.0185588, Final residual = 0.00168984, No Iterations 4
diagonalPCG:  Solving for p, Initial residual = 0.223501, Final residual = 0.0221764, No Iterations 59
time step continuity errors : sum local = 4.14872e-05, global = 6.45294e-06, cumulative = -7.52059e-05
ExecutionTime = 131.219 s  ClockTime = 131 s

Time = 129s

diagonalPBiCGStab:  Solving for Ux, Initial residual = 0.00650048, Final residual = 0.000595066, No Iterations 4
diagonalPBiCGStab:  Solving for Uy, Initial residual = 0.0110804, Final residual = 0.00110705, No Iterations 4
diagonalPBiCGStab:  Solving for Uz, Initial residual = 0.017893, Final residual = 0.00158835, No Iterations 4
diagonalPCG:  Solving for p, Initial residual = 0.218431, Final residual = 0.0214383, No Iterations 521
time step continuity errors : sum local = 4.01579e-05, global = 4.26466e-07, cumulative = -7.47795e-05
ExecutionTime = 132.641 s  ClockTime = 133 s

Time = 130s

diagonalPBiCGStab:  Solving for Ux, Initial residual = 0.0137242, Final residual = 0.00101899, No Iterations 3
diagonalPBiCGStab:  Solving for Uy, Initial residual = 0.0131449, Final residual = 0.00127255, No Iterations 4
diagonalPBiCGStab:  Solving for Uz, Initial residual = 0.0197535, Final residual = 0.00159999, No Iterations 4
diagonalPCG:  Solving for p, Initial residual = 0.177143, Final residual = 0.01756, No Iterations 26
time step continuity errors : sum local = 4.71437e-05, global = 7.23135e-08, cumulative = -7.47072e-05
ExecutionTime = 132.989 s  ClockTime = 133 s

Time = 131s

diagonalPBiCGStab:  Solving for Ux, Initial residual = 0.0133451, Final residual = 0.000680995, No Iterations 4
diagonalPBiCGStab:  Solving for Uy, Initial residual = 0.0119057, Final residual = 0.001109, No Iterations 4
diagonalPBiCGStab:  Solving for Uz, Initial residual = 0.0178504, Final residual = 0.00156856, No Iterations 4
diagonalPCG:  Solving for p, Initial residual = 0.165645, Final residual = 0.0164872, No Iterations 660
time step continuity errors : sum local = 4.43155e-05, global = -6.49537e-07, cumulative = -7.53567e-05
ExecutionTime = 134.759 s  ClockTime = 135 s

Time = 132s

diagonalPBiCGStab:  Solving for Ux, Initial residual = 0.00669366, Final residual = 0.00051568, No Iterations 4
diagonalPBiCGStab:  Solving for Uy, Initial residual = 0.0146346, Final residual = 0.00110586, No Iterations 4
[...]
time step continuity errors : sum local = 8.57978e-05, global = 3.02491e-06, cumulative = -0.000187535
ExecutionTime = 359.738 s  ClockTime = 360 s

Time = 468s

diagonalPBiCGStab:  Solving for Ux, Initial residual = 0.00840762, Final residual = 0.000793813, No Iterations 4
diagonalPBiCGStab:  Solving for Uy, Initial residual = 0.0133001, Final residual = 0.00106823, No Iterations 4
diagonalPBiCGStab:  Solving for Uz, Initial residual = 0.0251498, Final residual = 0.00185952, No Iterations 5
diagonalPCG:  Solving for p, Initial residual = 0.201121, Final residual = 0.0197619, No Iterations 132
time step continuity errors : sum local = 8.5895e-05, global = 3.17168e-06, cumulative = -0.000184363
ExecutionTime = 360.33 s  ClockTime = 361 s

Time = 469s

diagonalPBiCGStab:  Solving for Ux, Initial residual = 0.00752696, Final residual = 0.000583855, No Iterations 4
diagonalPBiCGStab:  Solving for Uy, Initial residual = 0.0135589, Final residual = 0.00101724, No Iterations 4
diagonalPBiCGStab:  Solving for Uz, Initial residual = 0.0258682, Final residual = 0.00185439, No Iterations 5
diagonalPCG:  Solving for p, Initial residual = 0.202944, Final residual = 0.0200873, No Iterations 53
time step continuity errors : sum local = 8.71037e-05, global = 6.84282e-06, cumulative = -0.000177521
ExecutionTime = 360.747 s  ClockTime = 361 s

Time = 470s

diagonalPBiCGStab:  Solving for Ux, Initial residual = 0.00733786, Final residual = 0.000713952, No Iterations 4
diagonalPBiCGStab:  Solving for Uy, Initial residual = 0.0138724, Final residual = 0.00125493, No Iterations 4
diagonalPBiCGStab:  Solving for Uz, Initial residual = 0.0251483, Final residual = 0.0020221, No Iterations 4
diagonalPCG:  Solving for p, Initial residual = 0.203435, Final residual = 0.0202127, No Iterations 184
time step continuity errors : sum local = 8.75515e-05, global = 6.31343e-06, cumulative = -0.000171207
ExecutionTime = 361.451 s  ClockTime = 362 s

Time = 471s

diagonalPBiCGStab:  Solving for Ux, Initial residual = 0.00934649, Final residual = 0.000854185, No Iterations 4
diagonalPBiCGStab:  Solving for Uy, Initial residual = 0.0156905, Final residual = 0.00123337, No Iterations 5
diagonalPBiCGStab:  Solving for Uz, Initial residual = 0.0256626, Final residual = 0.00125668, No Iterations 6
diagonalPCG:  Solving for p, Initial residual = 0.207391, Final residual = 0.0203076, No Iterations 24
time step continuity errors : sum local = 8.99486e-05, global = 7.75324e-06, cumulative = -0.000163454
ExecutionTime = 361.807 s  ClockTime = 362 s

Time = 472s

diagonalPBiCGStab:  Solving for Ux, Initial residual = 0.009271, Final residual = 0.000829564, No Iterations 4
diagonalPBiCGStab:  Solving for Uy, Initial residual = 0.0151672, Final residual = 0.00110309, No Iterations 4
diagonalPBiCGStab:  Solving for Uz, Initial residual = 0.0245487, Final residual = 0.00215729, No Iterations 5
diagonalPCG:  Solving for p, Initial residual = 0.204111, Final residual = 0.0203048, No Iterations 164
time step continuity errors : sum local = 9.01731e-05, global = 6.29713e-06, cumulative = -0.000157157
ExecutionTime = 362.464 s  ClockTime = 363 s

Time = 473s

diagonalPBiCGStab:  Solving for Ux, Initial residual = 0.00887781, Final residual = 0.000676611, No Iterations 4
diagonalPBiCGStab:  Solving for Uy, Initial residual = 0.015258, Final residual = 0.00116942, No Iterations 4
diagonalPBiCGStab:  Solving for Uz, Initial residual = 0.0256738, Final residual = 0.00244768, No Iterations 4
diagonalPCG:  Solving for p, Initial residual = 0.198125, Final residual = 0.0194808, No Iterations 144
time step continuity errors : sum local = 8.84973e-05, global = 3.17105e-06, cumulative = -0.000153986
ExecutionTime = 363.08 s  ClockTime = 363 s

Time = 474s

diagonalPBiCGStab:  Solving for Ux, Initial residual = 0.00983609, Final residual = 0.000885048, No Iterations 4
diagonalPBiCGStab:  Solving for Uy, Initial residual = 0.0161029, Final residual = 0.0013411, No Iterations 4
diagonalPBiCGStab:  Solving for Uz, Initial residual = 0.0261186, Final residual = 0.0011431, No Iterations 6
diagonalPCG:  Solving for p, Initial residual = 0.199897, Final residual = 0.0195676, No Iterations 45
time step continuity errors : sum local = 9.08591e-05, global = 1.65513e-06, cumulative = -0.000152331
ExecutionTime = 363.484 s  ClockTime = 364 s

Time = 475s

diagonalPBiCGStab:  Solving for Ux, Initial residual = 0.00983359, Final residual = 0.00087736, No Iterations 4
diagonalPBiCGStab:  Solving for Uy, Initial residual = 0.0152457, Final residual = 0.00119136, No Iterations 4
diagonalPBiCGStab:  Solving for Uz, Initial residual = 0.0254682, Final residual = 0.00245941, No Iterations 4
diagonalPCG:  Solving for p, Initial residual = 0.19563, Final residual = 0.0194644, No Iterations 146
time step continuity errors : sum local = 9.07095e-05, global = -2.37132e-06, cumulative = -0.000154702
ExecutionTime = 364.101 s  ClockTime = 364 s

Time = 476s

diagonalPBiCGStab:  Solving for Ux, Initial residual = 0.00885248, Final residual = 0.000687037, No Iterations 4
diagonalPBiCGStab:  Solving for Uy, Initial residual = 0.0151999, Final residual = 0.00127676, No Iterations 5
diagonalPBiCGStab:  Solving for Uz, Initial residual = 0.0258022, Final residual = 0.0021085, No Iterations 5
diagonalPCG:  Solving for p, Initial residual = 0.195316, Final residual = 0.019371, No Iterations 123
time step continuity errors : sum local = 8.9914e-05, global = -2.665e-06, cumulative = -0.000157367
ExecutionTime = 364.674 s  ClockTime = 365 s

Time = 477s

diagonalPBiCGStab:  Solving for Ux, Initial residual = 0.00869062, Final residual = 0.000563351, No Iterations 5
diagonalPBiCGStab:  Solving for Uy, Initial residual = 0.0158448, Final residual = 0.00120049, No Iterations 4
diagonalPBiCGStab:  Solving for Uz, Initial residual = 0.0255084, Final residual = 0.00194936, No Iterations 4
diagonalPCG:  Solving for p, Initial residual = 0.198024, Final residual = 0.0197222, No Iterations 52
time step continuity errors : sum local = 9.05574e-05, global = -5.66179e-06, cumulative = -0.000163029
ExecutionTime = 365.086 s  ClockTime = 365 s

Time = 478s

diagonalPBiCGStab:  Solving for Ux, Initial residual = 0.0083153, Final residual = 0.000709188, No Iterations 4
diagonalPBiCGStab:  Solving for Uy, Initial residual = 0.0155693, Final residual = 0.00124966, No Iterations 4
diagonalPBiCGStab:  Solving for Uz, Initial residual = 0.024822, Final residual = 0.00194639, No Iterations 4
diagonalPCG:  Solving for p, Initial residual = 0.192614, Final residual = 0.019239, No Iterations 127
time step continuity errors : sum local = 8.85152e-05, global = -3.14475e-06, cumulative = -0.000166173
ExecutionTime = 365.668 s  ClockTime = 366 s

Time = 479s

diagonalPBiCGStab:  Solving for Ux, Initial residual = 0.00899059, Final residual = 0.000706948, No Iterations 4
diagonalPBiCGStab:  Solving for Uy, Initial residual = 0.0159111, Final residual = 0.00133117, No Iterations 4
diagonalPBiCGStab:  Solving for Uz, Initial residual = 0.0252496, Final residual = 0.0020372, No Iterations 4
diagonalPCG:  Solving for p, Initial residual = 0.190347, Final residual = 0.0189353, No Iterations 128
time step continuity errors : sum local = 8.73544e-05, global = -3.92022e-06, cumulative = -0.000170094
ExecutionTime = 366.247 s  ClockTime = 367 s

Time = 480s

diagonalPBiCGStab:  Solving for Ux, Initial residual = 0.00969387, Final residual = 0.000582399, No Iterations 5
diagonalPBiCGStab:  Solving for Uy, Initial residual = 0.0158621, Final residual = 0.000879089, No Iterations 6
diagonalPBiCGStab:  Solving for Uz, Initial residual = 0.0251843, Final residual = 0.00195544, No Iterations 5
diagonalPCG:  Solving for p, Initial residual = 0.192404, Final residual = 0.0190824, No Iterations 480
time step continuity errors : sum local = 8.86728e-05, global = -3.34274e-06, cumulative = -0.000173436
ExecutionTime = 367.621 s  ClockTime = 368 s

Time = 481s

diagonalPBiCGStab:  Solving for Ux, Initial residual = 0.0105217, Final residual = 0.00100455, No Iterations 4
diagonalPBiCGStab:  Solving for Uy, Initial residual = 0.015228, Final residual = 0.00112984, No Iterations 5
diagonalPBiCGStab:  Solving for Uz, Initial residual = 0.0257136, Final residual = 0.0023763, No Iterations 4
diagonalPCG:  Solving for p, Initial residual = 0.240006, Final residual = 0.0236767, No Iterations 132
time step continuity errors : sum local = 8.92669e-05, global = -5.77355e-06, cumulative = -0.00017921
ExecutionTime = 368.218 s  ClockTime = 369 s

Time = 482s

diagonalPBiCGStab:  Solving for Ux, Initial residual = 0.0106118, Final residual = 0.000923086, No Iterations 4
diagonalPBiCGStab:  Solving for Uy, Initial residual = 0.0153423, Final residual = 0.000553861, No Iterations 6
diagonalPBiCGStab:  Solving for Uz, Initial residual = 0.0256614, Final residual = 0.00212602, No Iterations 4
diagonalPCG:  Solving for p, Initial residual = 0.242804, Final residual = 0.0239961, No Iterations 129
time step continuity errors : sum local = 8.93739e-05, global = -4.92197e-06, cumulative = -0.000184132
ExecutionTime = 368.82 s  ClockTime = 369 s

Time = 483s

diagonalPBiCGStab:  Solving for Ux, Initial residual = 0.0105339, Final residual = 0.000353842, No Iterations 6
diagonalPBiCGStab:  Solving for Uy, Initial residual = 0.0157332, Final residual = 0.00120392, No Iterations 5
diagonalPBiCGStab:  Solving for Uz, Initial residual = 0.0256735, Final residual = 0.00231713, No Iterations 4
diagonalPCG:  Solving for p, Initial residual = 0.245323, Final residual = 0.0244405, No Iterations 45
time step continuity errors : sum local = 9.10944e-05, global = -8.85599e-06, cumulative = -0.000192988
ExecutionTime = 369.227 s  ClockTime = 370 s

Time = 484s

diagonalPBiCGStab:  Solving for Ux, Initial residual = 0.0104726, Final residual = 0.000641419, No Iterations 5
diagonalPBiCGStab:  Solving for Uy, Initial residual = 0.0159642, Final residual = 0.00136939, No Iterations 4
diagonalPBiCGStab:  Solving for Uz, Initial residual = 0.025462, Final residual = 0.00196763, No Iterations 5
diagonalPCG:  Solving for p, Initial residual = 0.242425, Final residual = 0.0241708, No Iterations 229
time step continuity errors : sum local = 9.00389e-05, global = 3.89912e-06, cumulative = -0.000189089
ExecutionTime = 370.035 s  ClockTime = 370 s

Time = 485s

diagonalPBiCGStab:  Solving for Ux, Initial residual = 0.0103618, Final residual = 0.000345864, No Iterations 6
diagonalPBiCGStab:  Solving for Uy, Initial residual = 0.0162831, Final residual = 0.0013758, No Iterations 4
diagonalPBiCGStab:  Solving for Uz, Initial residual = 0.0266115, Final residual = 0.00179298, No Iterations 5
diagonalPCG:  Solving for p, Initial residual = 0.251772, Final residual = 0.0251764, No Iterations 29
time step continuity errors : sum local = 9.31154e-05, global = 1.9524e-07, cumulative = -0.000188894
ExecutionTime = 370.406 s  ClockTime = 371 s

Time = 486s

diagonalPBiCGStab:  Solving for Ux, Initial residual = 0.0102681, Final residual = 0.000318906, No Iterations 6
diagonalPBiCGStab:  Solving for Uy, Initial residual = 0.015793, Final residual = 0.00131694, No Iterations 4
diagonalPBiCGStab:  Solving for Uz, Initial residual = 0.0256206, Final residual = 0.0018173, No Iterations 5
diagonalPCG:  Solving for p, Initial residual = 0.25229, Final residual = 0.0251296, No Iterations 46
time step continuity errors : sum local = 9.32256e-05, global = 7.07914e-06, cumulative = -0.000181814
ExecutionTime = 370.814 s  ClockTime = 371 s

Time = 487s

diagonalPBiCGStab:  Solving for Ux, Initial residual = 0.0102445, Final residual = 0.000712158, No Iterations 5
diagonalPBiCGStab:  Solving for Uy, Initial residual = 0.0160949, Final residual = 0.00118942, No Iterations 4
diagonalPBiCGStab:  Solving for Uz, Initial residual = 0.0266379, Final residual = 0.00213131, No Iterations 4
diagonalPCG:  Solving for p, Initial residual = 0.254952, Final residual = 0.0254858, No Iterations 131
time step continuity errors : sum local = 9.47089e-05, global = 5.92683e-06, cumulative = -0.000175888
ExecutionTime = 371.401 s  ClockTime = 372 s

Time = 488s

diagonalPBiCGStab:  Solving for Ux, Initial residual = 0.0101958, Final residual = 0.000888734, No Iterations 4
diagonalPBiCGStab:  Solving for Uy, Initial residual = 0.0179097, Final residual = 0.00134374, No Iterations 4
diagonalPBiCGStab:  Solving for Uz, Initial residual = 0.0269487, Final residual = 0.00252575, No Iterations 4
diagonalPCG:  Solving for p, Initial residual = 0.261593, Final residual = 0.0258918, No Iterations 29
time step continuity errors : sum local = 9.59899e-05, global = 6.52486e-06, cumulative = -0.000169363
ExecutionTime = 371.76 s  ClockTime = 372 s

Time = 489s

diagonalPBiCGStab:  Solving for Ux, Initial residual = 0.0100322, Final residual = 0.000728285, No Iterations 4
diagonalPBiCGStab:  Solving for Uy, Initial residual = 0.0176054, Final residual = 0.00140885, No Iterations 4
diagonalPBiCGStab:  Solving for Uz, Initial residual = 0.0266956, Final residual = 0.00246907, No Iterations 5
diagonalPCG:  Solving for p, Initial residual = 0.264033, Final residual = 0.0261999, No Iterations 83
time step continuity errors : sum local = 9.71877e-05, global = -6.68504e-07, cumulative = -0.000170031
ExecutionTime = 372.244 s  ClockTime = 373 s

Time = 490s

diagonalPBiCGStab:  Solving for Ux, Initial residual = 0.0102356, Final residual = 0.000765494, No Iterations 4
diagonalPBiCGStab:  Solving for Uy, Initial residual = 0.0171997, Final residual = 0.00153124, No Iterations 4
diagonalPBiCGStab:  Solving for Uz, Initial residual = 0.0271299, Final residual = 0.00215871, No Iterations 4
diagonalPCG:  Solving for p, Initial residual = 0.268605, Final residual = 0.02678, No Iterations 27
time step continuity errors : sum local = 9.91541e-05, global = -3.9457e-06, cumulative = -0.000173977
ExecutionTime = 372.597 s  ClockTime = 373 s

Time = 491s

diagonalPBiCGStab:  Solving for Ux, Initial residual = 0.0102602, Final residual = 0.000738032, No Iterations 5
diagonalPBiCGStab:  Solving for Uy, Initial residual = 0.0169403, Final residual = 0.00162118, No Iterations 4
diagonalPBiCGStab:  Solving for Uz, Initial residual = 0.0269183, Final residual = 0.000742247, No Iterations 7
diagonalPCG:  Solving for p, Initial residual = 0.270881, Final residual = 0.0269651, No Iterations 34
time step continuity errors : sum local = 9.99756e-05, global = -9.61803e-06, cumulative = -0.000183595
ExecutionTime = 372.984 s  ClockTime = 373 s

Time = 492s

diagonalPBiCGStab:  Solving for Ux, Initial residual = 0.0102664, Final residual = 0.000810707, No Iterations 4
diagonalPBiCGStab:  Solving for Uy, Initial residual = 0.0167598, Final residual = 0.00126566, No Iterations 5
diagonalPBiCGStab:  Solving for Uz, Initial residual = 0.027042, Final residual = 0.00104577, No Iterations 6
diagonalPCG:  Solving for p, Initial residual = 0.273489, Final residual = 0.027303, No Iterations 48
time step continuity errors : sum local = 0.000101368, global = -1.4465e-05, cumulative = -0.00019806
ExecutionTime = 373.397 s  ClockTime = 374 s

Time = 493s

diagonalPBiCGStab:  Solving for Ux, Initial residual = 0.0106377, Final residual = 0.000759899, No Iterations 4
diagonalPBiCGStab:  Solving for Uy, Initial residual = 0.0168366, Final residual = 0.00147677, No Iterations 5
diagonalPBiCGStab:  Solving for Uz, Initial residual = 0.0275646, Final residual = 0.00250591, No Iterations 5
diagonalPCG:  Solving for p, Initial residual = 0.277132, Final residual = 0.0273493, No Iterations 80
time step continuity errors : sum local = 0.000101453, global = -1.75385e-05, cumulative = -0.000215598
ExecutionTime = 373.883 s  ClockTime = 374 s

Time = 494s

diagonalPBiCGStab:  Solving for Ux, Initial residual = 0.0111353, Final residual = 0.00102839, No Iterations 4
diagonalPBiCGStab:  Solving for Uy, Initial residual = 0.0177144, Final residual = 0.00135975, No Iterations 5
diagonalPBiCGStab:  Solving for Uz, Initial residual = 0.0277403, Final residual = 0.0020077, No Iterations 5
diagonalPCG:  Solving for p, Initial residual = 0.281027, Final residual = 0.0273862, No Iterations 24
time step continuity errors : sum local = 0.000102429, global = -2.00784e-05, cumulative = -0.000235677
ExecutionTime = 374.235 s  ClockTime = 375 s

Time = 495s

diagonalPBiCGStab:  Solving for Ux, Initial residual = 0.0110964, Final residual = 0.00101179, No Iterations 4
diagonalPBiCGStab:  Solving for Uy, Initial residual = 0.0175677, Final residual = 0.0011952, No Iterations 5
diagonalPBiCGStab:  Solving for Uz, Initial residual = 0.0272533, Final residual = 0.00111562, No Iterations 6
diagonalPCG:  Solving for p, Initial residual = 0.280566, Final residual = 0.0274691, No Iterations 534
time step continuity errors : sum local = 0.000103205, global = 9.80067e-07, cumulative = -0.000234697
ExecutionTime = 375.754 s  ClockTime = 376 s

Time = 496s

diagonalPBiCGStab:  Solving for Ux, Initial residual = 0.0211598, Final residual = 0.00198575, No Iterations 3
diagonalPBiCGStab:  Solving for Uy, Initial residual = 0.0208243, Final residual = 0.00135695, No Iterations 5
diagonalPBiCGStab:  Solving for Uz, Initial residual = 0.0294192, Final residual = 0.00131509, No Iterations 6
diagonalPCG:  Solving for p, Initial residual = 0.241077, Final residual = 0.0241065, No Iterations 28
time step continuity errors : sum local = 0.000124614, global = 1.47927e-06, cumulative = -0.000233218
ExecutionTime = 376.118 s  ClockTime = 376 s

Time = 497s

diagonalPBiCGStab:  Solving for Ux, Initial residual = 0.0211672, Final residual = 0.00199033, No Iterations 3
diagonalPBiCGStab:  Solving for Uy, Initial residual = 0.0198609, Final residual = 0.00144989, No Iterations 4
diagonalPBiCGStab:  Solving for Uz, Initial residual = 0.0275142, Final residual = 0.00214772, No Iterations 4
diagonalPCG:  Solving for p, Initial residual = 0.237538, Final residual = 0.0236016, No Iterations 80
time step continuity errors : sum local = 0.000122542, global = 1.54146e-05, cumulative = -0.000217803
ExecutionTime = 376.588 s  ClockTime = 377 s

Time = 498s

diagonalPBiCGStab:  Solving for Ux, Initial residual = 0.0209026, Final residual = 0.00167323, No Iterations 4
diagonalPBiCGStab:  Solving for Uy, Initial residual = 0.0210794, Final residual = 0.00207787, No Iterations 4
diagonalPBiCGStab:  Solving for Uz, Initial residual = 0.0284328, Final residual = 0.0022069, No Iterations 4
diagonalPCG:  Solving for p, Initial residual = 0.240298, Final residual = 0.0236229, No Iterations 448
time step continuity errors : sum local = 0.000120955, global = 3.20606e-06, cumulative = -0.000214597
ExecutionTime = 377.87 s  ClockTime = 378 s

Time = 499s

diagonalPBiCGStab:  Solving for Ux, Initial residual = 0.0177394, Final residual = 0.00174109, No Iterations 4
diagonalPBiCGStab:  Solving for Uy, Initial residual = 0.0239632, Final residual = 0.00199112, No Iterations 4
diagonalPBiCGStab:  Solving for Uz, Initial residual = 0.0305883, Final residual = 0.00250313, No Iterations 4
diagonalPCG:  Solving for p, Initial residual = 0.273406, Final residual = 0.0269388, No Iterations 37
time step continuity errors : sum local = 0.000137235, global = 1.0162e-05, cumulative = -0.000204435
ExecutionTime = 378.244 s  ClockTime = 379 s

Time = 500s

diagonalPBiCGStab:  Solving for Ux, Initial residual = 0.016885, Final residual = 0.00149164, No Iterations 4
diagonalPBiCGStab:  Solving for Uy, Initial residual = 0.0214213, Final residual = 0.00166006, No Iterations 4
diagonalPBiCGStab:  Solving for Uz, Initial residual = 0.0269527, Final residual = 0.00215175, No Iterations 4
diagonalPCG:  Solving for p, Initial residual = 0.264119, Final residual = 0.0261412, No Iterations 73
time step continuity errors : sum local = 0.00013264, global = -1.92448e-07, cumulative = -0.000204627
ExecutionTime = 378.816 s  ClockTime = 379 s

End

Finalising parallel run
