/*---------------------------------------------------------------------------*\
  =========                 |
  \\      /  F ield         | OpenFOAM: The Open Source CFD Toolbox
   \\    /   O peration     | Website:  https://openfoam.org
    \\  /    A nd           | Version:  11
     \\/     M anipulation  |
\*---------------------------------------------------------------------------*/
Build  : 11
Exec   : foamRun -parallel
Date   : Nov 01 2024
Time   : 03:55:35
Host   : "skynet-linux"
PID    : 33292
I/O    : uncollated
Case   : /home/humberto/casesXCALibre/BFS_3D_5mm_OF11
nProcs : 6
Slaves : 
5
(
"skynet-linux.33293"
"skynet-linux.33294"
"skynet-linux.33295"
"skynet-linux.33296"
"skynet-linux.33297"
)

Pstream initialised with:
    floatTransfer      : false
    nProcsSimpleSum    : 0
    commsType          : nonBlocking
    polling iterations : 0
sigFpe : Enabling floating point exception trapping (FOAM_SIGFPE).
fileModificationChecking : Monitoring run-time modified files using timeStampMaster (fileModificationSkew 10)
allowSystemOperations : Allowing user-supplied system call operations

// * * * * * * * * * * * * * * * * * * * * * * * * * * * * * * * * * * * * * //
Create time

Create mesh for time = 0

Selecting solver incompressibleFluid
Selecting viscosity model constant
Selecting turbulence model type laminar
Selecting laminar stress model Stokes
No MRF models present


SIMPLE: Convergence criteria found
        p: tolerance 1e-07
        U: tolerance 1e-07
        "(k|epsilon|omega|f|v2)": tolerance 1e-07


SIMPLE: Operating solver in steady-state mode with 1 outer corrector
SIMPLE: Operating solver in SIMPLE mode



Starting time loop

Time = 1s

diagonalPBiCGStab:  Solving for Ux, Initial residual = 1, Final residual = 0.0793449, No Iterations 9
diagonalPBiCGStab:  Solving for Uy, Initial residual = 1, Final residual = 0.0995826, No Iterations 3
diagonalPBiCGStab:  Solving for Uz, Initial residual = 1, Final residual = 0.0757627, No Iterations 3
diagonalPCG:  Solving for p, Initial residual = 1, Final residual = 0.0987127, No Iterations 855
time step continuity errors : sum local = 2.78447e-05, global = 9.84069e-08, cumulative = 9.84069e-08
ExecutionTime = 2.84445 s  ClockTime = 3 s

Time = 2s

diagonalPBiCGStab:  Solving for Ux, Initial residual = 0.878753, Final residual = 0.0565051, No Iterations 3
diagonalPBiCGStab:  Solving for Uy, Initial residual = 0.448003, Final residual = 0.0380757, No Iterations 5
diagonalPBiCGStab:  Solving for Uz, Initial residual = 0.380699, Final residual = 0.0287188, No Iterations 5
diagonalPCG:  Solving for p, Initial residual = 0.211198, Final residual = 0.0208398, No Iterations 555
time step continuity errors : sum local = 0.00179476, global = -2.10964e-05, cumulative = -2.0998e-05
ExecutionTime = 4.59583 s  ClockTime = 5 s

Time = 3s

diagonalPBiCGStab:  Solving for Ux, Initial residual = 0.269055, Final residual = 0.0228051, No Iterations 5
diagonalPBiCGStab:  Solving for Uy, Initial residual = 0.391084, Final residual = 0.0334493, No Iterations 5
diagonalPBiCGStab:  Solving for Uz, Initial residual = 0.501774, Final residual = 0.0422859, No Iterations 4
diagonalPCG:  Solving for p, Initial residual = 0.311194, Final residual = 0.030408, No Iterations 773
time step continuity errors : sum local = 0.000528581, global = 5.07869e-06, cumulative = -1.59193e-05
ExecutionTime = 6.88402 s  ClockTime = 7 s

Time = 4s

diagonalPBiCGStab:  Solving for Ux, Initial residual = 0.513247, Final residual = 0.0427373, No Iterations 3
diagonalPBiCGStab:  Solving for Uy, Initial residual = 0.323328, Final residual = 0.0313137, No Iterations 5
diagonalPBiCGStab:  Solving for Uz, Initial residual = 0.386503, Final residual = 0.033164, No Iterations 3
diagonalPCG:  Solving for p, Initial residual = 0.263336, Final residual = 0.0262897, No Iterations 122
time step continuity errors : sum local = 0.00138113, global = 1.94285e-05, cumulative = 3.50925e-06
ExecutionTime = 7.49411 s  ClockTime = 8 s

Time = 5s

diagonalPBiCGStab:  Solving for Ux, Initial residual = 0.61261, Final residual = 0.0466478, No Iterations 3
diagonalPBiCGStab:  Solving for Uy, Initial residual = 0.236538, Final residual = 0.0163709, No Iterations 5
diagonalPBiCGStab:  Solving for Uz, Initial residual = 0.166205, Final residual = 0.00916414, No Iterations 5
diagonalPCG:  Solving for p, Initial residual = 0.271002, Final residual = 0.0270404, No Iterations 551
time step continuity errors : sum local = 0.00138716, global = -1.04085e-06, cumulative = 2.4684e-06
ExecutionTime = 9.19226 s  ClockTime = 9 s

Time = 6s

diagonalPBiCGStab:  Solving for Ux, Initial residual = 0.317633, Final residual = 0.0234814, No Iterations 5
diagonalPBiCGStab:  Solving for Uy, Initial residual = 0.454172, Final residual = 0.043536, No Iterations 5
diagonalPBiCGStab:  Solving for Uz, Initial residual = 0.490169, Final residual = 0.0291985, No Iterations 5
diagonalPCG:  Solving for p, Initial residual = 0.636166, Final residual = 0.0632008, No Iterations 757
time step continuity errors : sum local = 0.000670752, global = -4.52159e-06, cumulative = -2.05319e-06
ExecutionTime = 11.4257 s  ClockTime = 12 s

Time = 7s

diagonalPBiCGStab:  Solving for Ux, Initial residual = 0.662507, Final residual = 0.0447049, No Iterations 4
diagonalPBiCGStab:  Solving for Uy, Initial residual = 0.305599, Final residual = 0.024529, No Iterations 5
diagonalPBiCGStab:  Solving for Uz, Initial residual = 0.368493, Final residual = 0.0250127, No Iterations 5
diagonalPCG:  Solving for p, Initial residual = 0.298607, Final residual = 0.0298266, No Iterations 349
time step continuity errors : sum local = 0.0008699, global = -6.39603e-05, cumulative = -6.60135e-05
ExecutionTime = 12.6253 s  ClockTime = 13 s

Time = 8s

diagonalPBiCGStab:  Solving for Ux, Initial residual = 0.688642, Final residual = 0.0491502, No Iterations 3
diagonalPBiCGStab:  Solving for Uy, Initial residual = 0.283616, Final residual = 0.0213837, No Iterations 5
diagonalPBiCGStab:  Solving for Uz, Initial residual = 0.209776, Final residual = 0.0200582, No Iterations 5
diagonalPCG:  Solving for p, Initial residual = 0.326059, Final residual = 0.0325184, No Iterations 655
time step continuity errors : sum local = 0.000851159, global = -6.18093e-06, cumulative = -7.21945e-05
ExecutionTime = 14.6085 s  ClockTime = 15 s

Time = 9s

diagonalPBiCGStab:  Solving for Ux, Initial residual = 0.301512, Final residual = 0.0278784, No Iterations 4
diagonalPBiCGStab:  Solving for Uy, Initial residual = 0.353775, Final residual = 0.029739, No Iterations 5
diagonalPBiCGStab:  Solving for Uz, Initial residual = 0.430838, Final residual = 0.0383358, No Iterations 4
diagonalPCG:  Solving for p, Initial residual = 0.343926, Final residual = 0.0337355, No Iterations 762
time step continuity errors : sum local = 0.000594116, global = 5.9179e-06, cumulative = -6.62766e-05
ExecutionTime = 16.879 s  ClockTime = 17 s

Time = 10s

diagonalPBiCGStab:  Solving for Ux, Initial residual = 0.424266, Final residual = 0.0322649, No Iterations 3
diagonalPBiCGStab:  Solving for Uy, Initial residual = 0.208925, Final residual = 0.0166274, No Iterations 5
diagonalPBiCGStab:  Solving for Uz, Initial residual = 0.258905, Final residual = 0.0187659, No Iterations 5
diagonalPCG:  Solving for p, Initial residual = 0.260689, Final residual = 0.0260142, No Iterations 718
time step continuity errors : sum local = 0.000837922, global = 3.94333e-06, cumulative = -6.23332e-05
ExecutionTime = 18.998 s  ClockTime = 19 s

Time = 11s

diagonalPBiCGStab:  Solving for Ux, Initial residual = 0.272143, Final residual = 0.00834963, No Iterations 5
diagonalPBiCGStab:  Solving for Uy, Initial residual = 0.28442, Final residual = 0.0075645, No Iterations 7
diagonalPBiCGStab:  Solving for Uz, Initial residual = 0.262252, Final residual = 0.0247823, No Iterations 4
diagonalPCG:  Solving for p, Initial residual = 0.319187, Final residual = 0.0317751, No Iterations 705
time step continuity errors : sum local = 0.000546418, global = 5.451e-06, cumulative = -5.68822e-05
ExecutionTime = 21.1073 s  ClockTime = 21 s

Time = 12s

diagonalPBiCGStab:  Solving for Ux, Initial residual = 0.485469, Final residual = 0.0327887, No Iterations 4
diagonalPBiCGStab:  Solving for Uy, Initial residual = 0.351208, Final residual = 0.0310633, No Iterations 5
diagonalPBiCGStab:  Solving for Uz, Initial residual = 0.386436, Final residual = 0.0301192, No Iterations 5
diagonalPCG:  Solving for p, Initial residual = 0.33619, Final residual = 0.0330339, No Iterations 344
time step continuity errors : sum local = 0.000658197, global = 3.58463e-05, cumulative = -2.10359e-05
ExecutionTime = 22.292 s  ClockTime = 22 s

Time = 13s

diagonalPBiCGStab:  Solving for Ux, Initial residual = 0.603902, Final residual = 0.0305674, No Iterations 4
diagonalPBiCGStab:  Solving for Uy, Initial residual = 0.18999, Final residual = 0.0179708, No Iterations 4
diagonalPBiCGStab:  Solving for Uz, Initial residual = 0.223726, Final residual = 0.0198398, No Iterations 5
diagonalPCG:  Solving for p, Initial residual = 0.334774, Final residual = 0.0329309, No Iterations 622
time step continuity errors : sum local = 0.000577074, global = -6.3373e-06, cumulative = -2.73732e-05
ExecutionTime = 24.1708 s  ClockTime = 24 s

Time = 14s

diagonalPBiCGStab:  Solving for Ux, Initial residual = 0.301366, Final residual = 0.0223032, No Iterations 4
diagonalPBiCGStab:  Solving for Uy, Initial residual = 0.2569, Final residual = 0.0195666, No Iterations 5
diagonalPBiCGStab:  Solving for Uz, Initial residual = 0.295924, Final residual = 0.0275153, No Iterations 4
diagonalPCG:  Solving for p, Initial residual = 0.519705, Final residual = 0.0509329, No Iterations 697
time step continuity errors : sum local = 0.00041454, global = 1.76564e-06, cumulative = -2.56075e-05
ExecutionTime = 26.2415 s  ClockTime = 26 s

Time = 15s

diagonalPBiCGStab:  Solving for Ux, Initial residual = 0.230129, Final residual = 0.0196293, No Iterations 4
diagonalPBiCGStab:  Solving for Uy, Initial residual = 0.247792, Final residual = 0.0197846, No Iterations 6
diagonalPBiCGStab:  Solving for Uz, Initial residual = 0.310311, Final residual = 0.030645, No Iterations 5
diagonalPCG:  Solving for p, Initial residual = 0.362295, Final residual = 0.0361711, No Iterations 315
time step continuity errors : sum local = 0.00045629, global = -4.0453e-06, cumulative = -2.96528e-05
ExecutionTime = 27.3762 s  ClockTime = 28 s

Time = 16s

diagonalPBiCGStab:  Solving for Ux, Initial residual = 0.190797, Final residual = 0.0114416, No Iterations 4
diagonalPBiCGStab:  Solving for Uy, Initial residual = 0.152844, Final residual = 0.0125344, No Iterations 5
diagonalPBiCGStab:  Solving for Uz, Initial residual = 0.214764, Final residual = 0.019604, No Iterations 4
diagonalPCG:  Solving for p, Initial residual = 0.356741, Final residual = 0.0354673, No Iterations 742
time step continuity errors : sum local = 0.000415512, global = -2.12618e-06, cumulative = -3.1779e-05
ExecutionTime = 29.6122 s  ClockTime = 30 s

Time = 17s

diagonalPBiCGStab:  Solving for Ux, Initial residual = 0.175741, Final residual = 0.0148524, No Iterations 4
diagonalPBiCGStab:  Solving for Uy, Initial residual = 0.196521, Final residual = 0.0148015, No Iterations 5
diagonalPBiCGStab:  Solving for Uz, Initial residual = 0.253505, Final residual = 0.0156244, No Iterations 5
diagonalPCG:  Solving for p, Initial residual = 0.723532, Final residual = 0.0711332, No Iterations 635
time step continuity errors : sum local = 0.000352825, global = -3.56749e-06, cumulative = -3.53465e-05
ExecutionTime = 31.5927 s  ClockTime = 32 s

Time = 18s

diagonalPBiCGStab:  Solving for Ux, Initial residual = 0.353593, Final residual = 0.0299971, No Iterations 3
diagonalPBiCGStab:  Solving for Uy, Initial residual = 0.198006, Final residual = 0.00915774, No Iterations 6
diagonalPBiCGStab:  Solving for Uz, Initial residual = 0.247872, Final residual = 0.00947243, No Iterations 6
diagonalPCG:  Solving for p, Initial residual = 0.375439, Final residual = 0.0370798, No Iterations 281
time step continuity errors : sum local = 0.000395596, global = -2.4731e-06, cumulative = -3.78196e-05
ExecutionTime = 32.6228 s  ClockTime = 33 s

Time = 19s

diagonalPBiCGStab:  Solving for Ux, Initial residual = 0.381112, Final residual = 0.0216295, No Iterations 4
diagonalPBiCGStab:  Solving for Uy, Initial residual = 0.144606, Final residual = 0.0133518, No Iterations 5
diagonalPBiCGStab:  Solving for Uz, Initial residual = 0.195742, Final residual = 0.0164083, No Iterations 5
diagonalPCG:  Solving for p, Initial residual = 0.360722, Final residual = 0.0358824, No Iterations 752
time step continuity errors : sum local = 0.000345129, global = -5.2494e-07, cumulative = -3.83446e-05
ExecutionTime = 34.9006 s  ClockTime = 35 s

Time = 20s

diagonalPBiCGStab:  Solving for Ux, Initial residual = 0.185921, Final residual = 0.0138301, No Iterations 4
diagonalPBiCGStab:  Solving for Uy, Initial residual = 0.182354, Final residual = 0.0181406, No Iterations 4
diagonalPBiCGStab:  Solving for Uz, Initial residual = 0.23968, Final residual = 0.0180685, No Iterations 5
diagonalPCG:  Solving for p, Initial residual = 0.671587, Final residual = 0.067128, No Iterations 644
time step continuity errors : sum local = 0.000284984, global = -1.13841e-06, cumulative = -3.9483e-05
ExecutionTime = 36.832 s  ClockTime = 37 s

Time = 21s

diagonalPBiCGStab:  Solving for Ux, Initial residual = 0.180126, Final residual = 0.0161466, No Iterations 3
diagonalPBiCGStab:  Solving for Uy, Initial residual = 0.135921, Final residual = 0.0130637, No Iterations 5
diagonalPBiCGStab:  Solving for Uz, Initial residual = 0.201147, Final residual = 0.0164049, No Iterations 5
diagonalPCG:  Solving for p, Initial residual = 0.410981, Final residual = 0.0408827, No Iterations 294
time step continuity errors : sum local = 0.00030982, global = 1.24214e-05, cumulative = -2.70616e-05
ExecutionTime = 37.8842 s  ClockTime = 38 s

Time = 22s

diagonalPBiCGStab:  Solving for Ux, Initial residual = 0.140845, Final residual = 0.0130302, No Iterations 3
diagonalPBiCGStab:  Solving for Uy, Initial residual = 0.114418, Final residual = 0.00866711, No Iterations 5
diagonalPBiCGStab:  Solving for Uz, Initial residual = 0.167788, Final residual = 0.0131685, No Iterations 5
diagonalPCG:  Solving for p, Initial residual = 0.415888, Final residual = 0.0415207, No Iterations 753
time step continuity errors : sum local = 0.000275241, global = 7.14305e-07, cumulative = -2.63473e-05
ExecutionTime = 40.1529 s  ClockTime = 40 s

Time = 23s

diagonalPBiCGStab:  Solving for Ux, Initial residual = 0.191076, Final residual = 0.0139453, No Iterations 4
diagonalPBiCGStab:  Solving for Uy, Initial residual = 0.167355, Final residual = 0.0164578, No Iterations 4
diagonalPBiCGStab:  Solving for Uz, Initial residual = 0.212757, Final residual = 0.0166377, No Iterations 5
diagonalPCG:  Solving for p, Initial residual = 0.416269, Final residual = 0.0415685, No Iterations 245
time step continuity errors : sum local = 0.000266233, global = 2.20436e-05, cumulative = -4.30371e-06
ExecutionTime = 41.0884 s  ClockTime = 41 s

Time = 24s

diagonalPBiCGStab:  Solving for Ux, Initial residual = 0.238024, Final residual = 0.0204848, No Iterations 3
diagonalPBiCGStab:  Solving for Uy, Initial residual = 0.116134, Final residual = 0.00894958, No Iterations 5
diagonalPBiCGStab:  Solving for Uz, Initial residual = 0.158161, Final residual = 0.0123479, No Iterations 5
diagonalPCG:  Solving for p, Initial residual = 0.422485, Final residual = 0.0418985, No Iterations 296
time step continuity errors : sum local = 0.000258513, global = 9.93371e-06, cumulative = 5.63e-06
ExecutionTime = 42.1698 s  ClockTime = 42 s

Time = 25s

diagonalPBiCGStab:  Solving for Ux, Initial residual = 0.202155, Final residual = 0.0174203, No Iterations 4
diagonalPBiCGStab:  Solving for Uy, Initial residual = 0.125356, Final residual = 0.011382, No Iterations 4
diagonalPBiCGStab:  Solving for Uz, Initial residual = 0.163798, Final residual = 0.0123748, No Iterations 5
diagonalPCG:  Solving for p, Initial residual = 0.413038, Final residual = 0.0412036, No Iterations 256
time step continuity errors : sum local = 0.000235312, global = -1.19672e-05, cumulative = -6.3372e-06
ExecutionTime = 43.1396 s  ClockTime = 43 s

Time = 26s

diagonalPBiCGStab:  Solving for Ux, Initial residual = 0.200048, Final residual = 0.0181714, No Iterations 3
diagonalPBiCGStab:  Solving for Uy, Initial residual = 0.12473, Final residual = 0.00993515, No Iterations 4
diagonalPBiCGStab:  Solving for Uz, Initial residual = 0.13762, Final residual = 0.0117265, No Iterations 5
diagonalPCG:  Solving for p, Initial residual = 0.392782, Final residual = 0.0385744, No Iterations 707
time step continuity errors : sum local = 0.000219785, global = 2.68292e-06, cumulative = -3.65428e-06
ExecutionTime = 45.2409 s  ClockTime = 45 s

Time = 27s

diagonalPBiCGStab:  Solving for Ux, Initial residual = 0.105137, Final residual = 0.00706058, No Iterations 5
diagonalPBiCGStab:  Solving for Uy, Initial residual = 0.0908922, Final residual = 0.00889337, No Iterations 4
diagonalPBiCGStab:  Solving for Uz, Initial residual = 0.143199, Final residual = 0.0130762, No Iterations 5
diagonalPCG:  Solving for p, Initial residual = 0.576253, Final residual = 0.0571032, No Iterations 296
time step continuity errors : sum local = 0.00020466, global = -1.03701e-05, cumulative = -1.40244e-05
ExecutionTime = 46.3174 s  ClockTime = 46 s

Time = 28s

diagonalPBiCGStab:  Solving for Ux, Initial residual = 0.0917465, Final residual = 0.00849987, No Iterations 4
diagonalPBiCGStab:  Solving for Uy, Initial residual = 0.0845601, Final residual = 0.00623676, No Iterations 5
diagonalPBiCGStab:  Solving for Uz, Initial residual = 0.120544, Final residual = 0.00969201, No Iterations 5
diagonalPCG:  Solving for p, Initial residual = 0.568704, Final residual = 0.0567395, No Iterations 244
time step continuity errors : sum local = 0.0001894, global = -1.59348e-06, cumulative = -1.56179e-05
ExecutionTime = 47.2768 s  ClockTime = 47 s

Time = 29s

diagonalPBiCGStab:  Solving for Ux, Initial residual = 0.101064, Final residual = 0.00973111, No Iterations 5
diagonalPBiCGStab:  Solving for Uy, Initial residual = 0.0922972, Final residual = 0.00857425, No Iterations 4
diagonalPBiCGStab:  Solving for Uz, Initial residual = 0.108316, Final residual = 0.0084976, No Iterations 5
diagonalPCG:  Solving for p, Initial residual = 0.55403, Final residual = 0.0548824, No Iterations 238
time step continuity errors : sum local = 0.000178435, global = 9.18988e-06, cumulative = -6.42801e-06
ExecutionTime = 48.2167 s  ClockTime = 48 s

Time = 30s

diagonalPBiCGStab:  Solving for Ux, Initial residual = 0.0943298, Final residual = 0.00887171, No Iterations 4
diagonalPBiCGStab:  Solving for Uy, Initial residual = 0.0753286, Final residual = 0.00720544, No Iterations 4
diagonalPBiCGStab:  Solving for Uz, Initial residual = 0.101691, Final residual = 0.00803947, No Iterations 5
diagonalPCG:  Solving for p, Initial residual = 0.52485, Final residual = 0.0524406, No Iterations 710
time step continuity errors : sum local = 0.000169802, global = 4.99389e-07, cumulative = -5.92863e-06
ExecutionTime = 50.3591 s  ClockTime = 51 s

Time = 31s

diagonalPBiCGStab:  Solving for Ux, Initial residual = 0.143978, Final residual = 0.0141824, No Iterations 3
diagonalPBiCGStab:  Solving for Uy, Initial residual = 0.0850017, Final residual = 0.00783284, No Iterations 4
diagonalPBiCGStab:  Solving for Uz, Initial residual = 0.123143, Final residual = 0.0118097, No Iterations 5
diagonalPCG:  Solving for p, Initial residual = 0.345231, Final residual = 0.0344603, No Iterations 247
time step continuity errors : sum local = 0.000167274, global = 5.53838e-06, cumulative = -3.90246e-07
ExecutionTime = 51.3165 s  ClockTime = 51 s

Time = 32s

diagonalPBiCGStab:  Solving for Ux, Initial residual = 0.147608, Final residual = 0.0100206, No Iterations 4
diagonalPBiCGStab:  Solving for Uy, Initial residual = 0.0744276, Final residual = 0.00648533, No Iterations 4
diagonalPBiCGStab:  Solving for Uz, Initial residual = 0.0899015, Final residual = 0.00826758, No Iterations 5
diagonalPCG:  Solving for p, Initial residual = 0.323141, Final residual = 0.0320961, No Iterations 112
time step continuity errors : sum local = 0.000153529, global = -8.35714e-06, cumulative = -8.74739e-06
ExecutionTime = 51.9028 s  ClockTime = 52 s

Time = 33s

diagonalPBiCGStab:  Solving for Ux, Initial residual = 0.140549, Final residual = 0.0111444, No Iterations 3
diagonalPBiCGStab:  Solving for Uy, Initial residual = 0.064445, Final residual = 0.00562945, No Iterations 4
diagonalPBiCGStab:  Solving for Uz, Initial residual = 0.0783865, Final residual = 0.00592723, No Iterations 5
diagonalPCG:  Solving for p, Initial residual = 0.296334, Final residual = 0.0291991, No Iterations 641
time step continuity errors : sum local = 0.000144207, global = 8.10374e-07, cumulative = -7.93701e-06
ExecutionTime = 53.8355 s  ClockTime = 54 s

Time = 34s

diagonalPBiCGStab:  Solving for Ux, Initial residual = 0.0568097, Final residual = 0.00551299, No Iterations 4
diagonalPBiCGStab:  Solving for Uy, Initial residual = 0.0563972, Final residual = 0.0038471, No Iterations 6
diagonalPBiCGStab:  Solving for Uz, Initial residual = 0.0954356, Final residual = 0.00818553, No Iterations 5
diagonalPCG:  Solving for p, Initial residual = 0.545657, Final residual = 0.054253, No Iterations 269
time step continuity errors : sum local = 0.000128224, global = -9.01252e-06, cumulative = -1.69495e-05
ExecutionTime = 54.8351 s  ClockTime = 55 s

Time = 35s

diagonalPBiCGStab:  Solving for Ux, Initial residual = 0.0640862, Final residual = 0.00598944, No Iterations 4
diagonalPBiCGStab:  Solving for Uy, Initial residual = 0.0531388, Final residual = 0.00510647, No Iterations 4
diagonalPBiCGStab:  Solving for Uz, Initial residual = 0.071728, Final residual = 0.00710559, No Iterations 5
diagonalPCG:  Solving for p, Initial residual = 0.521506, Final residual = 0.0515502, No Iterations 106
time step continuity errors : sum local = 0.00012523, global = 2.57899e-06, cumulative = -1.43705e-05
ExecutionTime = 55.4073 s  ClockTime = 56 s

Time = 36s

diagonalPBiCGStab:  Solving for Ux, Initial residual = 0.0573786, Final residual = 0.0054307, No Iterations 4
diagonalPBiCGStab:  Solving for Uy, Initial residual = 0.0484792, Final residual = 0.00471297, No Iterations 4
diagonalPBiCGStab:  Solving for Uz, Initial residual = 0.0647308, Final residual = 0.00565073, No Iterations 5
diagonalPCG:  Solving for p, Initial residual = 0.502548, Final residual = 0.0501875, No Iterations 150
time step continuity errors : sum local = 0.000119558, global = 1.3745e-05, cumulative = -6.25525e-07
ExecutionTime = 56.1029 s  ClockTime = 56 s

Time = 37s

diagonalPBiCGStab:  Solving for Ux, Initial residual = 0.0567244, Final residual = 0.00547271, No Iterations 4
diagonalPBiCGStab:  Solving for Uy, Initial residual = 0.0455821, Final residual = 0.0041875, No Iterations 4
diagonalPBiCGStab:  Solving for Uz, Initial residual = 0.0658885, Final residual = 0.0063142, No Iterations 5
diagonalPCG:  Solving for p, Initial residual = 0.474903, Final residual = 0.0469871, No Iterations 723
time step continuity errors : sum local = 0.000107141, global = 5.87511e-07, cumulative = -3.8014e-08
ExecutionTime = 58.2158 s  ClockTime = 58 s

Time = 38s

diagonalPBiCGStab:  Solving for Ux, Initial residual = 0.128412, Final residual = 0.0121637, No Iterations 3
diagonalPBiCGStab:  Solving for Uy, Initial residual = 0.061848, Final residual = 0.00165272, No Iterations 7
diagonalPBiCGStab:  Solving for Uz, Initial residual = 0.0896967, Final residual = 0.00756181, No Iterations 5
diagonalPCG:  Solving for p, Initial residual = 0.23808, Final residual = 0.0237348, No Iterations 115
time step continuity errors : sum local = 0.000127632, global = -3.353e-06, cumulative = -3.39102e-06
ExecutionTime = 58.8269 s  ClockTime = 59 s

Time = 39s

diagonalPBiCGStab:  Solving for Ux, Initial residual = 0.120589, Final residual = 0.00600418, No Iterations 4
diagonalPBiCGStab:  Solving for Uy, Initial residual = 0.0445575, Final residual = 0.00439965, No Iterations 4
diagonalPBiCGStab:  Solving for Uz, Initial residual = 0.0545884, Final residual = 0.00311781, No Iterations 6
diagonalPCG:  Solving for p, Initial residual = 0.21759, Final residual = 0.0216734, No Iterations 630
time step continuity errors : sum local = 0.000119788, global = -2.00306e-06, cumulative = -5.39408e-06
ExecutionTime = 60.7395 s  ClockTime = 61 s

Time = 40s

diagonalPBiCGStab:  Solving for Ux, Initial residual = 0.0481166, Final residual = 0.00366087, No Iterations 4
diagonalPBiCGStab:  Solving for Uy, Initial residual = 0.043897, Final residual = 0.00385975, No Iterations 6
diagonalPBiCGStab:  Solving for Uz, Initial residual = 0.0672085, Final residual = 0.00634143, No Iterations 5
diagonalPCG:  Solving for p, Initial residual = 0.333134, Final residual = 0.0327079, No Iterations 640
time step continuity errors : sum local = 9.62685e-05, global = -2.21498e-06, cumulative = -7.60906e-06
ExecutionTime = 62.7405 s  ClockTime = 63 s

Time = 41s

diagonalPBiCGStab:  Solving for Ux, Initial residual = 0.04701, Final residual = 0.00419987, No Iterations 4
diagonalPBiCGStab:  Solving for Uy, Initial residual = 0.0408593, Final residual = 0.0038616, No Iterations 6
diagonalPBiCGStab:  Solving for Uz, Initial residual = 0.0656357, Final residual = 0.00544862, No Iterations 5
diagonalPCG:  Solving for p, Initial residual = 0.35833, Final residual = 0.0355775, No Iterations 242
time step continuity errors : sum local = 0.000109799, global = 4.7317e-06, cumulative = -2.87736e-06
ExecutionTime = 63.6694 s  ClockTime = 64 s

Time = 42s

diagonalPBiCGStab:  Solving for Ux, Initial residual = 0.0487881, Final residual = 0.00390323, No Iterations 4
diagonalPBiCGStab:  Solving for Uy, Initial residual = 0.0330167, Final residual = 0.000990774, No Iterations 7
diagonalPBiCGStab:  Solving for Uz, Initial residual = 0.0499136, Final residual = 0.00399134, No Iterations 5
diagonalPCG:  Solving for p, Initial residual = 0.35197, Final residual = 0.0350929, No Iterations 630
time step continuity errors : sum local = 0.000103756, global = 1.15834e-06, cumulative = -1.71901e-06
ExecutionTime = 65.5937 s  ClockTime = 66 s

Time = 43s

diagonalPBiCGStab:  Solving for Ux, Initial residual = 0.0485785, Final residual = 0.00413989, No Iterations 4
diagonalPBiCGStab:  Solving for Uy, Initial residual = 0.0365895, Final residual = 0.00151255, No Iterations 7
diagonalPBiCGStab:  Solving for Uz, Initial residual = 0.0589849, Final residual = 0.00574637, No Iterations 5
diagonalPCG:  Solving for p, Initial residual = 0.286777, Final residual = 0.028204, No Iterations 700
time step continuity errors : sum local = 8.61656e-05, global = -2.6236e-07, cumulative = -1.98137e-06
ExecutionTime = 67.7314 s  ClockTime = 68 s

Time = 44s

diagonalPBiCGStab:  Solving for Ux, Initial residual = 0.0607697, Final residual = 0.0047755, No Iterations 3
diagonalPBiCGStab:  Solving for Uy, Initial residual = 0.0382474, Final residual = 0.00105875, No Iterations 7
diagonalPBiCGStab:  Solving for Uz, Initial residual = 0.0513137, Final residual = 0.00388086, No Iterations 5
diagonalPCG:  Solving for p, Initial residual = 0.218008, Final residual = 0.0217588, No Iterations 291
time step continuity errors : sum local = 9.0496e-05, global = -6.69397e-06, cumulative = -8.67534e-06
ExecutionTime = 68.7907 s  ClockTime = 69 s

Time = 45s

diagonalPBiCGStab:  Solving for Ux, Initial residual = 0.0606641, Final residual = 0.00506811, No Iterations 3
diagonalPBiCGStab:  Solving for Uy, Initial residual = 0.0380518, Final residual = 0.00280186, No Iterations 5
diagonalPBiCGStab:  Solving for Uz, Initial residual = 0.0429838, Final residual = 0.00419396, No Iterations 6
diagonalPCG:  Solving for p, Initial residual = 0.217812, Final residual = 0.0214082, No Iterations 487
time step continuity errors : sum local = 8.64373e-05, global = -9.15581e-07, cumulative = -9.59092e-06
ExecutionTime = 70.3907 s  ClockTime = 71 s

Time = 46s

diagonalPBiCGStab:  Solving for Ux, Initial residual = 0.0321215, Final residual = 0.00258872, No Iterations 4
diagonalPBiCGStab:  Solving for Uy, Initial residual = 0.0361213, Final residual = 0.00294086, No Iterations 5
diagonalPBiCGStab:  Solving for Uz, Initial residual = 0.0580853, Final residual = 0.004221, No Iterations 5
diagonalPCG:  Solving for p, Initial residual = 0.345836, Final residual = 0.0345553, No Iterations 346
time step continuity errors : sum local = 8.76119e-05, global = -8.12163e-06, cumulative = -1.77126e-05
ExecutionTime = 71.58 s  ClockTime = 72 s

Time = 47s

diagonalPBiCGStab:  Solving for Ux, Initial residual = 0.0349894, Final residual = 0.00293882, No Iterations 4
diagonalPBiCGStab:  Solving for Uy, Initial residual = 0.0276647, Final residual = 0.0020436, No Iterations 5
diagonalPBiCGStab:  Solving for Uz, Initial residual = 0.0414878, Final residual = 0.00413799, No Iterations 4
diagonalPCG:  Solving for p, Initial residual = 0.321828, Final residual = 0.0319575, No Iterations 184
time step continuity errors : sum local = 8.57613e-05, global = 7.05058e-06, cumulative = -1.0662e-05
ExecutionTime = 72.3709 s  ClockTime = 73 s

Time = 48s

diagonalPBiCGStab:  Solving for Ux, Initial residual = 0.0338066, Final residual = 0.00332306, No Iterations 3
diagonalPBiCGStab:  Solving for Uy, Initial residual = 0.0253665, Final residual = 0.00220018, No Iterations 5
diagonalPBiCGStab:  Solving for Uz, Initial residual = 0.0360515, Final residual = 0.00354203, No Iterations 4
diagonalPCG:  Solving for p, Initial residual = 0.314094, Final residual = 0.0314046, No Iterations 482
time step continuity errors : sum local = 7.97798e-05, global = 1.44383e-06, cumulative = -9.21814e-06
ExecutionTime = 73.8928 s  ClockTime = 74 s

Time = 49s

diagonalPBiCGStab:  Solving for Ux, Initial residual = 0.0280276, Final residual = 0.00217542, No Iterations 4
diagonalPBiCGStab:  Solving for Uy, Initial residual = 0.0324, Final residual = 0.00237317, No Iterations 5
diagonalPBiCGStab:  Solving for Uz, Initial residual = 0.0442431, Final residual = 0.00347288, No Iterations 6
diagonalPCG:  Solving for p, Initial residual = 0.262702, Final residual = 0.0262559, No Iterations 335
time step continuity errors : sum local = 7.09818e-05, global = 6.951e-06, cumulative = -2.26714e-06
ExecutionTime = 75.0969 s  ClockTime = 75 s

Time = 50s

diagonalPBiCGStab:  Solving for Ux, Initial residual = 0.0263256, Final residual = 0.00241974, No Iterations 4
diagonalPBiCGStab:  Solving for Uy, Initial residual = 0.0319528, Final residual = 0.00238988, No Iterations 5
diagonalPBiCGStab:  Solving for Uz, Initial residual = 0.034231, Final residual = 0.00340896, No Iterations 4
diagonalPCG:  Solving for p, Initial residual = 0.251766, Final residual = 0.0247673, No Iterations 121
time step continuity errors : sum local = 6.86799e-05, global = -4.97612e-07, cumulative = -2.76475e-06
ExecutionTime = 75.7093 s  ClockTime = 76 s

Time = 51s

diagonalPBiCGStab:  Solving for Ux, Initial residual = 0.0248812, Final residual = 0.00212752, No Iterations 4
diagonalPBiCGStab:  Solving for Uy, Initial residual = 0.0279748, Final residual = 0.00258393, No Iterations 4
diagonalPBiCGStab:  Solving for Uz, Initial residual = 0.0313535, Final residual = 0.0031205, No Iterations 4
diagonalPCG:  Solving for p, Initial residual = 0.237469, Final residual = 0.0234895, No Iterations 215
time step continuity errors : sum local = 6.7153e-05, global = -6.02148e-06, cumulative = -8.78623e-06
ExecutionTime = 76.5687 s  ClockTime = 77 s

Time = 52s

diagonalPBiCGStab:  Solving for Ux, Initial residual = 0.0220273, Final residual = 0.00217295, No Iterations 4
diagonalPBiCGStab:  Solving for Uy, Initial residual = 0.0265543, Final residual = 0.00259104, No Iterations 4
diagonalPBiCGStab:  Solving for Uz, Initial residual = 0.0323514, Final residual = 0.00312355, No Iterations 5
diagonalPCG:  Solving for p, Initial residual = 0.238856, Final residual = 0.023474, No Iterations 553
time step continuity errors : sum local = 6.41994e-05, global = -1.24714e-06, cumulative = -1.00334e-05
ExecutionTime = 78.2867 s  ClockTime = 78 s

Time = 53s

diagonalPBiCGStab:  Solving for Ux, Initial residual = 0.0230412, Final residual = 0.00221492, No Iterations 4
diagonalPBiCGStab:  Solving for Uy, Initial residual = 0.0267645, Final residual = 0.0021582, No Iterations 5
diagonalPBiCGStab:  Solving for Uz, Initial residual = 0.0369828, Final residual = 0.00243704, No Iterations 5
diagonalPCG:  Solving for p, Initial residual = 0.317201, Final residual = 0.0314698, No Iterations 135
time step continuity errors : sum local = 6.82843e-05, global = -1.95087e-06, cumulative = -1.19842e-05
ExecutionTime = 78.9561 s  ClockTime = 79 s

Time = 54s

diagonalPBiCGStab:  Solving for Ux, Initial residual = 0.0220713, Final residual = 0.00200776, No Iterations 4
diagonalPBiCGStab:  Solving for Uy, Initial residual = 0.0228309, Final residual = 0.00199656, No Iterations 5
diagonalPBiCGStab:  Solving for Uz, Initial residual = 0.0295609, Final residual = 0.00275193, No Iterations 5
diagonalPCG:  Solving for p, Initial residual = 0.306866, Final residual = 0.0305856, No Iterations 180
time step continuity errors : sum local = 6.60504e-05, global = 1.72039e-06, cumulative = -1.02639e-05
ExecutionTime = 79.7226 s  ClockTime = 80 s

Time = 55s

diagonalPBiCGStab:  Solving for Ux, Initial residual = 0.0213463, Final residual = 0.00189569, No Iterations 4
diagonalPBiCGStab:  Solving for Uy, Initial residual = 0.0236569, Final residual = 0.00194999, No Iterations 5
diagonalPBiCGStab:  Solving for Uz, Initial residual = 0.0283832, Final residual = 0.00214138, No Iterations 5
diagonalPCG:  Solving for p, Initial residual = 0.299567, Final residual = 0.0298041, No Iterations 75
time step continuity errors : sum local = 6.12863e-05, global = 8.25496e-06, cumulative = -2.0089e-06
ExecutionTime = 80.2307 s  ClockTime = 80 s

Time = 56s

diagonalPBiCGStab:  Solving for Ux, Initial residual = 0.0212295, Final residual = 0.00180039, No Iterations 4
diagonalPBiCGStab:  Solving for Uy, Initial residual = 0.024907, Final residual = 0.00236261, No Iterations 4
diagonalPBiCGStab:  Solving for Uz, Initial residual = 0.0270355, Final residual = 0.00231113, No Iterations 5
diagonalPCG:  Solving for p, Initial residual = 0.290806, Final residual = 0.0289725, No Iterations 544
time step continuity errors : sum local = 5.83894e-05, global = 7.08891e-07, cumulative = -1.30001e-06
ExecutionTime = 81.9144 s  ClockTime = 82 s

Time = 57s

diagonalPBiCGStab:  Solving for Ux, Initial residual = 0.0209966, Final residual = 0.00198453, No Iterations 4
diagonalPBiCGStab:  Solving for Uy, Initial residual = 0.0292796, Final residual = 0.00222596, No Iterations 5
diagonalPBiCGStab:  Solving for Uz, Initial residual = 0.0328444, Final residual = 0.00163951, No Iterations 6
diagonalPCG:  Solving for p, Initial residual = 0.234639, Final residual = 0.0231893, No Iterations 58
time step continuity errors : sum local = 6.13285e-05, global = -4.9896e-07, cumulative = -1.79897e-06
ExecutionTime = 82.3828 s  ClockTime = 83 s

Time = 58s

diagonalPBiCGStab:  Solving for Ux, Initial residual = 0.0199885, Final residual = 0.00172247, No Iterations 4
diagonalPBiCGStab:  Solving for Uy, Initial residual = 0.0260526, Final residual = 0.00256065, No Iterations 4
diagonalPBiCGStab:  Solving for Uz, Initial residual = 0.0264091, Final residual = 0.00215703, No Iterations 5
diagonalPCG:  Solving for p, Initial residual = 0.223144, Final residual = 0.0221341, No Iterations 212
time step continuity errors : sum local = 5.91606e-05, global = -4.88357e-06, cumulative = -6.68254e-06
ExecutionTime = 83.2324 s  ClockTime = 83 s

Time = 59s

diagonalPBiCGStab:  Solving for Ux, Initial residual = 0.0181432, Final residual = 0.00171982, No Iterations 4
diagonalPBiCGStab:  Solving for Uy, Initial residual = 0.0265383, Final residual = 0.00250382, No Iterations 4
diagonalPBiCGStab:  Solving for Uz, Initial residual = 0.0262771, Final residual = 0.00072769, No Iterations 7
diagonalPCG:  Solving for p, Initial residual = 0.224597, Final residual = 0.0223471, No Iterations 545
time step continuity errors : sum local = 5.74132e-05, global = -7.98534e-07, cumulative = -7.48107e-06
ExecutionTime = 84.9371 s  ClockTime = 85 s

Time = 60s

diagonalPBiCGStab:  Solving for Ux, Initial residual = 0.0235536, Final residual = 0.00232847, No Iterations 3
diagonalPBiCGStab:  Solving for Uy, Initial residual = 0.0260333, Final residual = 0.00171209, No Iterations 6
diagonalPBiCGStab:  Solving for Uz, Initial residual = 0.0315529, Final residual = 0.00263321, No Iterations 5
diagonalPCG:  Solving for p, Initial residual = 0.268151, Final residual = 0.0266914, No Iterations 173
time step continuity errors : sum local = 6.03152e-05, global = -2.05617e-06, cumulative = -9.53724e-06
ExecutionTime = 85.6929 s  ClockTime = 86 s

Time = 61s

diagonalPBiCGStab:  Solving for Ux, Initial residual = 0.0225858, Final residual = 0.0016835, No Iterations 4
diagonalPBiCGStab:  Solving for Uy, Initial residual = 0.0219187, Final residual = 0.00190528, No Iterations 5
diagonalPBiCGStab:  Solving for Uz, Initial residual = 0.0250311, Final residual = 0.00248505, No Iterations 4
diagonalPCG:  Solving for p, Initial residual = 0.260021, Final residual = 0.0260008, No Iterations 164
time step continuity errors : sum local = 5.81329e-05, global = 3.36533e-06, cumulative = -6.17191e-06
ExecutionTime = 86.4145 s  ClockTime = 87 s

Time = 62s

diagonalPBiCGStab:  Solving for Ux, Initial residual = 0.0222672, Final residual = 0.00160138, No Iterations 4
diagonalPBiCGStab:  Solving for Uy, Initial residual = 0.0245118, Final residual = 0.00230899, No Iterations 5
diagonalPBiCGStab:  Solving for Uz, Initial residual = 0.024869, Final residual = 0.00208406, No Iterations 5
diagonalPCG:  Solving for p, Initial residual = 0.257022, Final residual = 0.0252422, No Iterations 547
time step continuity errors : sum local = 5.35194e-05, global = -1.75714e-07, cumulative = -6.34762e-06
ExecutionTime = 88.1452 s  ClockTime = 88 s

Time = 63s

diagonalPBiCGStab:  Solving for Ux, Initial residual = 0.016395, Final residual = 0.00129534, No Iterations 4
diagonalPBiCGStab:  Solving for Uy, Initial residual = 0.0275588, Final residual = 0.00135914, No Iterations 6
diagonalPBiCGStab:  Solving for Uz, Initial residual = 0.0292398, Final residual = 0.00212768, No Iterations 5
diagonalPCG:  Solving for p, Initial residual = 0.231331, Final residual = 0.0230698, No Iterations 172
time step continuity errors : sum local = 5.52617e-05, global = 3.36755e-06, cumulative = -2.98007e-06
ExecutionTime = 88.9067 s  ClockTime = 89 s

Time = 64s

diagonalPBiCGStab:  Solving for Ux, Initial residual = 0.0144165, Final residual = 0.00143137, No Iterations 4
diagonalPBiCGStab:  Solving for Uy, Initial residual = 0.0250123, Final residual = 0.0022845, No Iterations 4
diagonalPBiCGStab:  Solving for Uz, Initial residual = 0.0233982, Final residual = 0.00219868, No Iterations 4
diagonalPCG:  Solving for p, Initial residual = 0.225758, Final residual = 0.0222658, No Iterations 163
time step continuity errors : sum local = 5.26453e-05, global = -1.08703e-06, cumulative = -4.06711e-06
ExecutionTime = 89.6316 s  ClockTime = 90 s

Time = 65s

diagonalPBiCGStab:  Solving for Ux, Initial residual = 0.0144937, Final residual = 0.00138715, No Iterations 4
diagonalPBiCGStab:  Solving for Uy, Initial residual = 0.0232704, Final residual = 0.00205358, No Iterations 4
diagonalPBiCGStab:  Solving for Uz, Initial residual = 0.0228953, Final residual = 0.00218629, No Iterations 4
diagonalPCG:  Solving for p, Initial residual = 0.221167, Final residual = 0.0220815, No Iterations 47
time step continuity errors : sum local = 5.11697e-05, global = -6.79269e-06, cumulative = -1.08598e-05
ExecutionTime = 90.0554 s  ClockTime = 90 s

Time = 66s

diagonalPBiCGStab:  Solving for Ux, Initial residual = 0.0139464, Final residual = 0.00134448, No Iterations 4
diagonalPBiCGStab:  Solving for Uy, Initial residual = 0.0227211, Final residual = 0.00197909, No Iterations 4
diagonalPBiCGStab:  Solving for Uz, Initial residual = 0.0217576, Final residual = 0.00156218, No Iterations 5
diagonalPCG:  Solving for p, Initial residual = 0.214937, Final residual = 0.0213738, No Iterations 661
time step continuity errors : sum local = 4.98731e-05, global = 1.29063e-06, cumulative = -9.56917e-06
ExecutionTime = 92.0532 s  ClockTime = 92 s

Time = 67s

diagonalPBiCGStab:  Solving for Ux, Initial residual = 0.0187495, Final residual = 0.00156536, No Iterations 4
diagonalPBiCGStab:  Solving for Uy, Initial residual = 0.0246152, Final residual = 0.00184257, No Iterations 5
diagonalPBiCGStab:  Solving for Uz, Initial residual = 0.0264855, Final residual = 0.00172656, No Iterations 5
diagonalPCG:  Solving for p, Initial residual = 0.267218, Final residual = 0.0265123, No Iterations 64
time step continuity errors : sum local = 5.25188e-05, global = 6.95159e-07, cumulative = -8.87401e-06
ExecutionTime = 92.5298 s  ClockTime = 93 s

Time = 68s

diagonalPBiCGStab:  Solving for Ux, Initial residual = 0.0184362, Final residual = 0.00136104, No Iterations 4
diagonalPBiCGStab:  Solving for Uy, Initial residual = 0.0221516, Final residual = 0.00198983, No Iterations 4
diagonalPBiCGStab:  Solving for Uz, Initial residual = 0.022326, Final residual = 0.00210604, No Iterations 4
diagonalPCG:  Solving for p, Initial residual = 0.260509, Final residual = 0.0259591, No Iterations 239
time step continuity errors : sum local = 5.11901e-05, global = 3.35782e-06, cumulative = -5.51619e-06
ExecutionTime = 93.4474 s  ClockTime = 94 s

Time = 69s

diagonalPBiCGStab:  Solving for Ux, Initial residual = 0.0170214, Final residual = 0.00135556, No Iterations 4
diagonalPBiCGStab:  Solving for Uy, Initial residual = 0.0221007, Final residual = 0.00219966, No Iterations 5
diagonalPBiCGStab:  Solving for Uz, Initial residual = 0.022605, Final residual = 0.00207316, No Iterations 4
diagonalPCG:  Solving for p, Initial residual = 0.259977, Final residual = 0.0257999, No Iterations 556
time step continuity errors : sum local = 4.71308e-05, global = -3.66062e-07, cumulative = -5.88226e-06
ExecutionTime = 95.1603 s  ClockTime = 95 s

Time = 70s

diagonalPBiCGStab:  Solving for Ux, Initial residual = 0.0172204, Final residual = 0.00154177, No Iterations 4
diagonalPBiCGStab:  Solving for Uy, Initial residual = 0.0247177, Final residual = 0.00214764, No Iterations 5
diagonalPBiCGStab:  Solving for Uz, Initial residual = 0.0261385, Final residual = 0.00181109, No Iterations 6
diagonalPCG:  Solving for p, Initial residual = 0.203821, Final residual = 0.020118, No Iterations 153
time step continuity errors : sum local = 5.05189e-05, global = 3.50343e-06, cumulative = -2.37883e-06
ExecutionTime = 95.8696 s  ClockTime = 96 s

Time = 71s

diagonalPBiCGStab:  Solving for Ux, Initial residual = 0.0167188, Final residual = 0.00151002, No Iterations 4
diagonalPBiCGStab:  Solving for Uy, Initial residual = 0.0226727, Final residual = 0.000975835, No Iterations 6
diagonalPBiCGStab:  Solving for Uz, Initial residual = 0.0219576, Final residual = 0.00184782, No Iterations 6
diagonalPCG:  Solving for p, Initial residual = 0.198959, Final residual = 0.0196888, No Iterations 191
time step continuity errors : sum local = 4.83803e-05, global = -7.70566e-07, cumulative = -3.1494e-06
ExecutionTime = 96.6783 s  ClockTime = 97 s

Time = 72s

diagonalPBiCGStab:  Solving for Ux, Initial residual = 0.0173313, Final residual = 0.00141063, No Iterations 4
diagonalPBiCGStab:  Solving for Uy, Initial residual = 0.0243337, Final residual = 0.00207806, No Iterations 4
diagonalPBiCGStab:  Solving for Uz, Initial residual = 0.0220515, Final residual = 0.000971708, No Iterations 6
diagonalPCG:  Solving for p, Initial residual = 0.200164, Final residual = 0.019764, No Iterations 661
time step continuity errors : sum local = 4.70074e-05, global = 4.80999e-07, cumulative = -2.6684e-06
ExecutionTime = 98.6962 s  ClockTime = 99 s

Time = 73s

diagonalPBiCGStab:  Solving for Ux, Initial residual = 0.0147426, Final residual = 0.00135504, No Iterations 4
diagonalPBiCGStab:  Solving for Uy, Initial residual = 0.0231356, Final residual = 0.00218247, No Iterations 5
diagonalPBiCGStab:  Solving for Uz, Initial residual = 0.023525, Final residual = 0.00161371, No Iterations 5
diagonalPCG:  Solving for p, Initial residual = 0.264428, Final residual = 0.0263369, No Iterations 177
time step continuity errors : sum local = 4.60183e-05, global = -3.83913e-06, cumulative = -6.50753e-06
ExecutionTime = 99.4647 s  ClockTime = 100 s

Time = 74s

diagonalPBiCGStab:  Solving for Ux, Initial residual = 0.0128197, Final residual = 0.00120838, No Iterations 4
diagonalPBiCGStab:  Solving for Uy, Initial residual = 0.020888, Final residual = 0.00150994, No Iterations 5
diagonalPBiCGStab:  Solving for Uz, Initial residual = 0.0217772, Final residual = 0.00206306, No Iterations 4
diagonalPCG:  Solving for p, Initial residual = 0.251925, Final residual = 0.0246837, No Iterations 177
time step continuity errors : sum local = 4.40139e-05, global = -1.04326e-06, cumulative = -7.55079e-06
ExecutionTime = 100.239 s  ClockTime = 100 s

Time = 75s

diagonalPBiCGStab:  Solving for Ux, Initial residual = 0.0103317, Final residual = 0.000860605, No Iterations 4
diagonalPBiCGStab:  Solving for Uy, Initial residual = 0.0205647, Final residual = 0.00183329, No Iterations 4
diagonalPBiCGStab:  Solving for Uz, Initial residual = 0.0211259, Final residual = 0.00182501, No Iterations 4
diagonalPCG:  Solving for p, Initial residual = 0.235853, Final residual = 0.0235393, No Iterations 169
time step continuity errors : sum local = 4.29704e-05, global = 3.96933e-07, cumulative = -7.15385e-06
ExecutionTime = 100.977 s  ClockTime = 101 s

Time = 76s

diagonalPBiCGStab:  Solving for Ux, Initial residual = 0.00875835, Final residual = 0.000708661, No Iterations 5
diagonalPBiCGStab:  Solving for Uy, Initial residual = 0.021331, Final residual = 0.00180243, No Iterations 4
diagonalPBiCGStab:  Solving for Uz, Initial residual = 0.0207678, Final residual = 0.00191379, No Iterations 4
diagonalPCG:  Solving for p, Initial residual = 0.228152, Final residual = 0.0225723, No Iterations 149
time step continuity errors : sum local = 4.08376e-05, global = -7.26991e-07, cumulative = -7.88085e-06
ExecutionTime = 101.67 s  ClockTime = 102 s

Time = 77s

diagonalPBiCGStab:  Solving for Ux, Initial residual = 0.00945443, Final residual = 0.00068758, No Iterations 5
diagonalPBiCGStab:  Solving for Uy, Initial residual = 0.0206332, Final residual = 0.00168096, No Iterations 4
diagonalPBiCGStab:  Solving for Uz, Initial residual = 0.0207565, Final residual = 0.00171433, No Iterations 4
diagonalPCG:  Solving for p, Initial residual = 0.225033, Final residual = 0.0221908, No Iterations 169
time step continuity errors : sum local = 3.96557e-05, global = 4.17733e-07, cumulative = -7.46311e-06
ExecutionTime = 102.404 s  ClockTime = 103 s

Time = 78s

diagonalPBiCGStab:  Solving for Ux, Initial residual = 0.00972254, Final residual = 0.000767291, No Iterations 4
diagonalPBiCGStab:  Solving for Uy, Initial residual = 0.0201941, Final residual = 0.00169557, No Iterations 5
diagonalPBiCGStab:  Solving for Uz, Initial residual = 0.0205346, Final residual = 0.00182326, No Iterations 4
diagonalPCG:  Solving for p, Initial residual = 0.223626, Final residual = 0.021988, No Iterations 161
time step continuity errors : sum local = 3.84888e-05, global = 1.05987e-06, cumulative = -6.40324e-06
ExecutionTime = 103.124 s  ClockTime = 103 s

Time = 79s

diagonalPBiCGStab:  Solving for Ux, Initial residual = 0.00930368, Final residual = 0.000635626, No Iterations 5
diagonalPBiCGStab:  Solving for Uy, Initial residual = 0.0206651, Final residual = 0.00178845, No Iterations 4
diagonalPBiCGStab:  Solving for Uz, Initial residual = 0.020355, Final residual = 0.00188179, No Iterations 5
diagonalPCG:  Solving for p, Initial residual = 0.220822, Final residual = 0.0219379, No Iterations 54
time step continuity errors : sum local = 3.82714e-05, global = 6.90213e-07, cumulative = -5.71303e-06
ExecutionTime = 103.572 s  ClockTime = 104 s

Time = 80s

diagonalPBiCGStab:  Solving for Ux, Initial residual = 0.00907137, Final residual = 0.000873867, No Iterations 4
diagonalPBiCGStab:  Solving for Uy, Initial residual = 0.0203038, Final residual = 0.00181561, No Iterations 5
diagonalPBiCGStab:  Solving for Uz, Initial residual = 0.0198678, Final residual = 0.00151053, No Iterations 4
diagonalPCG:  Solving for p, Initial residual = 0.219088, Final residual = 0.0215885, No Iterations 159
time step continuity errors : sum local = 3.77625e-05, global = -1.62236e-07, cumulative = -5.87527e-06
ExecutionTime = 104.29 s  ClockTime = 104 s

Time = 81s

diagonalPBiCGStab:  Solving for Ux, Initial residual = 0.0091415, Final residual = 0.000866065, No Iterations 4
diagonalPBiCGStab:  Solving for Uy, Initial residual = 0.0204919, Final residual = 0.00175829, No Iterations 4
diagonalPBiCGStab:  Solving for Uz, Initial residual = 0.0198663, Final residual = 0.00170342, No Iterations 4
diagonalPCG:  Solving for p, Initial residual = 0.213584, Final residual = 0.0212199, No Iterations 56
time step continuity errors : sum local = 3.77556e-05, global = 8.90246e-07, cumulative = -4.98502e-06
ExecutionTime = 104.731 s  ClockTime = 105 s

Time = 82s

diagonalPBiCGStab:  Solving for Ux, Initial residual = 0.00894993, Final residual = 0.000850287, No Iterations 4
diagonalPBiCGStab:  Solving for Uy, Initial residual = 0.0200235, Final residual = 0.00162292, No Iterations 4
diagonalPBiCGStab:  Solving for Uz, Initial residual = 0.0196529, Final residual = 0.00153859, No Iterations 4
diagonalPCG:  Solving for p, Initial residual = 0.210302, Final residual = 0.0209792, No Iterations 208
time step continuity errors : sum local = 3.73768e-05, global = -9.38718e-07, cumulative = -5.92374e-06
ExecutionTime = 105.568 s  ClockTime = 106 s

Time = 83s

diagonalPBiCGStab:  Solving for Ux, Initial residual = 0.00782792, Final residual = 0.000654616, No Iterations 4
diagonalPBiCGStab:  Solving for Uy, Initial residual = 0.0197011, Final residual = 0.00148329, No Iterations 4
diagonalPBiCGStab:  Solving for Uz, Initial residual = 0.0200285, Final residual = 0.00195853, No Iterations 4
diagonalPCG:  Solving for p, Initial residual = 0.206978, Final residual = 0.020685, No Iterations 47
time step continuity errors : sum local = 3.68946e-05, global = -1.65992e-06, cumulative = -7.58366e-06
ExecutionTime = 105.995 s  ClockTime = 106 s

Time = 84s

diagonalPBiCGStab:  Solving for Ux, Initial residual = 0.00745783, Final residual = 0.000572517, No Iterations 4
diagonalPBiCGStab:  Solving for Uy, Initial residual = 0.0192968, Final residual = 0.00146168, No Iterations 4
diagonalPBiCGStab:  Solving for Uz, Initial residual = 0.0192759, Final residual = 0.00143575, No Iterations 4
diagonalPCG:  Solving for p, Initial residual = 0.203445, Final residual = 0.0203396, No Iterations 85
time step continuity errors : sum local = 3.62957e-05, global = -3.10567e-06, cumulative = -1.06893e-05
ExecutionTime = 106.518 s  ClockTime = 107 s

Time = 85s

diagonalPBiCGStab:  Solving for Ux, Initial residual = 0.0074354, Final residual = 0.000687834, No Iterations 4
diagonalPBiCGStab:  Solving for Uy, Initial residual = 0.0197604, Final residual = 0.00111839, No Iterations 5
diagonalPBiCGStab:  Solving for Uz, Initial residual = 0.0192666, Final residual = 0.00165011, No Iterations 4
diagonalPCG:  Solving for p, Initial residual = 0.201004, Final residual = 0.0200421, No Iterations 131
time step continuity errors : sum local = 3.57871e-05, global = -3.29609e-06, cumulative = -1.39854e-05
ExecutionTime = 107.159 s  ClockTime = 107 s

Time = 86s

diagonalPBiCGStab:  Solving for Ux, Initial residual = 0.0078215, Final residual = 0.00075123, No Iterations 4
diagonalPBiCGStab:  Solving for Uy, Initial residual = 0.0205195, Final residual = 0.00188467, No Iterations 4
diagonalPBiCGStab:  Solving for Uz, Initial residual = 0.0191756, Final residual = 0.00132135, No Iterations 5
diagonalPCG:  Solving for p, Initial residual = 0.203324, Final residual = 0.0202329, No Iterations 54
time step continuity errors : sum local = 3.58035e-05, global = -3.96237e-06, cumulative = -1.79478e-05
ExecutionTime = 107.601 s  ClockTime = 108 s

Time = 87s

diagonalPBiCGStab:  Solving for Ux, Initial residual = 0.00748183, Final residual = 0.000708004, No Iterations 4
diagonalPBiCGStab:  Solving for Uy, Initial residual = 0.0204722, Final residual = 0.00175736, No Iterations 4
diagonalPBiCGStab:  Solving for Uz, Initial residual = 0.0187075, Final residual = 0.00136862, No Iterations 4
diagonalPCG:  Solving for p, Initial residual = 0.20115, Final residual = 0.0200964, No Iterations 203
time step continuity errors : sum local = 3.56699e-05, global = -2.62501e-06, cumulative = -2.05728e-05
ExecutionTime = 108.425 s  ClockTime = 109 s

Time = 88s

diagonalPBiCGStab:  Solving for Ux, Initial residual = 0.00819091, Final residual = 0.000744515, No Iterations 4
diagonalPBiCGStab:  Solving for Uy, Initial residual = 0.019988, Final residual = 0.00185979, No Iterations 4
diagonalPBiCGStab:  Solving for Uz, Initial residual = 0.0188381, Final residual = 0.00161508, No Iterations 4
diagonalPCG:  Solving for p, Initial residual = 0.20512, Final residual = 0.0203105, No Iterations 36
time step continuity errors : sum local = 3.54316e-05, global = -2.59541e-06, cumulative = -2.31682e-05
ExecutionTime = 108.819 s  ClockTime = 109 s

Time = 89s

diagonalPBiCGStab:  Solving for Ux, Initial residual = 0.00796273, Final residual = 0.000695225, No Iterations 4
diagonalPBiCGStab:  Solving for Uy, Initial residual = 0.0194421, Final residual = 0.00191099, No Iterations 4
diagonalPBiCGStab:  Solving for Uz, Initial residual = 0.0182523, Final residual = 0.0015392, No Iterations 4
diagonalPCG:  Solving for p, Initial residual = 0.203108, Final residual = 0.0199508, No Iterations 79
time step continuity errors : sum local = 3.48407e-05, global = -1.62611e-06, cumulative = -2.47943e-05
ExecutionTime = 109.318 s  ClockTime = 109 s

Time = 90s

diagonalPBiCGStab:  Solving for Ux, Initial residual = 0.00784532, Final residual = 0.000686786, No Iterations 4
diagonalPBiCGStab:  Solving for Uy, Initial residual = 0.0189217, Final residual = 0.00174694, No Iterations 4
diagonalPBiCGStab:  Solving for Uz, Initial residual = 0.0181435, Final residual = 0.00166274, No Iterations 4
diagonalPCG:  Solving for p, Initial residual = 0.202417, Final residual = 0.0202391, No Iterations 211
time step continuity errors : sum local = 3.53576e-05, global = -3.14046e-06, cumulative = -2.79348e-05
ExecutionTime = 110.158 s  ClockTime = 110 s

Time = 91s

diagonalPBiCGStab:  Solving for Ux, Initial residual = 0.00720616, Final residual = 0.000706077, No Iterations 4
diagonalPBiCGStab:  Solving for Uy, Initial residual = 0.0199184, Final residual = 0.00185084, No Iterations 4
diagonalPBiCGStab:  Solving for Uz, Initial residual = 0.0185185, Final residual = 0.00166707, No Iterations 4
diagonalPCG:  Solving for p, Initial residual = 0.20428, Final residual = 0.0197391, No Iterations 34
time step continuity errors : sum local = 3.44555e-05, global = -2.9355e-06, cumulative = -3.08703e-05
ExecutionTime = 110.543 s  ClockTime = 111 s

Time = 92s

diagonalPBiCGStab:  Solving for Ux, Initial residual = 0.00697777, Final residual = 0.000645325, No Iterations 4
diagonalPBiCGStab:  Solving for Uy, Initial residual = 0.0194361, Final residual = 0.00187952, No Iterations 3
diagonalPBiCGStab:  Solving for Uz, Initial residual = 0.0179342, Final residual = 0.000654593, No Iterations 6
diagonalPCG:  Solving for p, Initial residual = 0.19955, Final residual = 0.0198469, No Iterations 74
time step continuity errors : sum local = 3.47956e-05, global = -4.02952e-06, cumulative = -3.48998e-05
ExecutionTime = 111.041 s  ClockTime = 111 s

Time = 93s

diagonalPBiCGStab:  Solving for Ux, Initial residual = 0.0068496, Final residual = 0.000654133, No Iterations 4
diagonalPBiCGStab:  Solving for Uy, Initial residual = 0.0196492, Final residual = 0.00184447, No Iterations 3
diagonalPBiCGStab:  Solving for Uz, Initial residual = 0.0176619, Final residual = 0.00159796, No Iterations 4
diagonalPCG:  Solving for p, Initial residual = 0.197754, Final residual = 0.0195934, No Iterations 574
time step continuity errors : sum local = 3.42753e-05, global = 4.14419e-07, cumulative = -3.44854e-05
ExecutionTime = 112.774 s  ClockTime = 113 s

Time = 94s

diagonalPBiCGStab:  Solving for Ux, Initial residual = 0.0115125, Final residual = 0.000907831, No Iterations 3
diagonalPBiCGStab:  Solving for Uy, Initial residual = 0.0195857, Final residual = 0.00157839, No Iterations 4
diagonalPBiCGStab:  Solving for Uz, Initial residual = 0.018706, Final residual = 0.00105305, No Iterations 6
diagonalPCG:  Solving for p, Initial residual = 0.203872, Final residual = 0.0203084, No Iterations 40
time step continuity errors : sum local = 3.68934e-05, global = 9.6226e-07, cumulative = -3.35231e-05
ExecutionTime = 113.186 s  ClockTime = 113 s

Time = 95s

diagonalPBiCGStab:  Solving for Ux, Initial residual = 0.0113026, Final residual = 0.00111206, No Iterations 3
diagonalPBiCGStab:  Solving for Uy, Initial residual = 0.0184544, Final residual = 0.0015959, No Iterations 4
diagonalPBiCGStab:  Solving for Uz, Initial residual = 0.0174752, Final residual = 0.000930018, No Iterations 5
diagonalPCG:  Solving for p, Initial residual = 0.199489, Final residual = 0.0198991, No Iterations 485
time step continuity errors : sum local = 3.62529e-05, global = -5.32621e-07, cumulative = -3.40557e-05
ExecutionTime = 114.716 s  ClockTime = 115 s

Time = 96s

diagonalPBiCGStab:  Solving for Ux, Initial residual = 0.00676609, Final residual = 0.000554922, No Iterations 4
diagonalPBiCGStab:  Solving for Uy, Initial residual = 0.0188124, Final residual = 0.00185256, No Iterations 4
diagonalPBiCGStab:  Solving for Uz, Initial residual = 0.0188922, Final residual = 0.00146164, No Iterations 5
diagonalPCG:  Solving for p, Initial residual = 0.19616, Final residual = 0.0195463, No Iterations 83
time step continuity errors : sum local = 3.54521e-05, global = 2.57894e-06, cumulative = -3.14768e-05
ExecutionTime = 115.237 s  ClockTime = 115 s

Time = 97s

diagonalPBiCGStab:  Solving for Ux, Initial residual = 0.00672628, Final residual = 0.000642217, No Iterations 4
diagonalPBiCGStab:  Solving for Uy, Initial residual = 0.0183192, Final residual = 0.00150152, No Iterations 4
diagonalPBiCGStab:  Solving for Uz, Initial residual = 0.0178732, Final residual = 0.00159522, No Iterations 4
diagonalPCG:  Solving for p, Initial residual = 0.194559, Final residual = 0.0194393, No Iterations 558
time step continuity errors : sum local = 3.52731e-05, global = 9.00508e-07, cumulative = -3.05763e-05
ExecutionTime = 116.966 s  ClockTime = 117 s

Time = 98s

diagonalPBiCGStab:  Solving for Ux, Initial residual = 0.0108366, Final residual = 0.000931176, No Iterations 3
diagonalPBiCGStab:  Solving for Uy, Initial residual = 0.0208982, Final residual = 0.00178661, No Iterations 4
diagonalPBiCGStab:  Solving for Uz, Initial residual = 0.0189301, Final residual = 0.00146559, No Iterations 4
diagonalPCG:  Solving for p, Initial residual = 0.181271, Final residual = 0.0180321, No Iterations 150
time step continuity errors : sum local = 3.94482e-05, global = -9.15258e-07, cumulative = -3.14916e-05
ExecutionTime = 117.641 s  ClockTime = 118 s

Time = 99s

diagonalPBiCGStab:  Solving for Ux, Initial residual = 0.00937352, Final residual = 0.000884636, No Iterations 3
diagonalPBiCGStab:  Solving for Uy, Initial residual = 0.0221555, Final residual = 0.00168844, No Iterations 4
diagonalPBiCGStab:  Solving for Uz, Initial residual = 0.0181804, Final residual = 0.000363496, No Iterations 7
diagonalPCG:  Solving for p, Initial residual = 0.178222, Final residual = 0.0177293, No Iterations 219
time step continuity errors : sum local = 3.83582e-05, global = -3.64574e-06, cumulative = -3.51373e-05
ExecutionTime = 118.501 s  ClockTime = 119 s

Time = 100s

diagonalPBiCGStab:  Solving for Ux, Initial residual = 0.00953821, Final residual = 0.000727183, No Iterations 4
diagonalPBiCGStab:  Solving for Uy, Initial residual = 0.0224417, Final residual = 0.00213541, No Iterations 3
diagonalPBiCGStab:  Solving for Uz, Initial residual = 0.0184559, Final residual = 0.00153537, No Iterations 4
diagonalPCG:  Solving for p, Initial residual = 0.183761, Final residual = 0.0182844, No Iterations 499
time step continuity errors : sum local = 3.88888e-05, global = -1.18354e-06, cumulative = -3.63208e-05
ExecutionTime = 120.082 s  ClockTime = 120 s

Time = 101s

diagonalPBiCGStab:  Solving for Ux, Initial residual = 0.0100859, Final residual = 0.000796637, No Iterations 4
diagonalPBiCGStab:  Solving for Uy, Initial residual = 0.0202248, Final residual = 0.00201833, No Iterations 4
diagonalPBiCGStab:  Solving for Uz, Initial residual = 0.0194146, Final residual = 0.00168413, No Iterations 4
diagonalPCG:  Solving for p, Initial residual = 0.235619, Final residual = 0.0233403, No Iterations 178
time step continuity errors : sum local = 3.94955e-05, global = -1.03039e-06, cumulative = -3.73512e-05
ExecutionTime = 120.842 s  ClockTime = 121 s

Time = 102s

diagonalPBiCGStab:  Solving for Ux, Initial residual = 0.00856498, Final residual = 0.000715753, No Iterations 4
diagonalPBiCGStab:  Solving for Uy, Initial residual = 0.0185187, Final residual = 0.00172065, No Iterations 4
diagonalPBiCGStab:  Solving for Uz, Initial residual = 0.0186141, Final residual = 0.0013909, No Iterations 4
diagonalPCG:  Solving for p, Initial residual = 0.232347, Final residual = 0.0230714, No Iterations 191
time step continuity errors : sum local = 3.86506e-05, global = 1.72897e-06, cumulative = -3.56223e-05
ExecutionTime = 121.635 s  ClockTime = 122 s

Time = 103s

diagonalPBiCGStab:  Solving for Ux, Initial residual = 0.00989834, Final residual = 0.0006954, No Iterations 4
diagonalPBiCGStab:  Solving for Uy, Initial residual = 0.0198473, Final residual = 0.00165596, No Iterations 4
diagonalPBiCGStab:  Solving for Uz, Initial residual = 0.0188934, Final residual = 0.00176811, No Iterations 4
diagonalPCG:  Solving for p, Initial residual = 0.235533, Final residual = 0.0234409, No Iterations 536
time step continuity errors : sum local = 3.86885e-05, global = 1.09964e-07, cumulative = -3.55123e-05
ExecutionTime = 123.291 s  ClockTime = 123 s

Time = 104s

diagonalPBiCGStab:  Solving for Ux, Initial residual = 0.00931262, Final residual = 0.00076467, No Iterations 4
diagonalPBiCGStab:  Solving for Uy, Initial residual = 0.0218808, Final residual = 0.00214794, No Iterations 4
diagonalPBiCGStab:  Solving for Uz, Initial residual = 0.0195457, Final residual = 0.00160604, No Iterations 4
diagonalPCG:  Solving for p, Initial residual = 0.18844, Final residual = 0.0187831, No Iterations 171
time step continuity errors : sum local = 3.97739e-05, global = 2.63042e-06, cumulative = -3.28819e-05
ExecutionTime = 124.03 s  ClockTime = 124 s

Time = 105s

diagonalPBiCGStab:  Solving for Ux, Initial residual = 0.00827557, Final residual = 0.000682346, No Iterations 4
diagonalPBiCGStab:  Solving for Uy, Initial residual = 0.0216825, Final residual = 0.00204385, No Iterations 3
diagonalPBiCGStab:  Solving for Uz, Initial residual = 0.0185157, Final residual = 0.00139401, No Iterations 4
diagonalPCG:  Solving for p, Initial residual = 0.187301, Final residual = 0.0186622, No Iterations 171
time step continuity errors : sum local = 3.88437e-05, global = 2.71421e-07, cumulative = -3.26105e-05
ExecutionTime = 124.758 s  ClockTime = 125 s

Time = 106s

diagonalPBiCGStab:  Solving for Ux, Initial residual = 0.00910574, Final residual = 0.000641226, No Iterations 4
diagonalPBiCGStab:  Solving for Uy, Initial residual = 0.0212997, Final residual = 0.00196783, No Iterations 3
diagonalPBiCGStab:  Solving for Uz, Initial residual = 0.0185733, Final residual = 0.0013611, No Iterations 4
diagonalPCG:  Solving for p, Initial residual = 0.187756, Final residual = 0.01863, No Iterations 46
time step continuity errors : sum local = 3.91394e-05, global = -9.36064e-07, cumulative = -3.35465e-05
ExecutionTime = 125.171 s  ClockTime = 125 s

Time = 107s

diagonalPBiCGStab:  Solving for Ux, Initial residual = 0.00890115, Final residual = 0.000863278, No Iterations 3
diagonalPBiCGStab:  Solving for Uy, Initial residual = 0.0208177, Final residual = 0.00189483, No Iterations 3
diagonalPBiCGStab:  Solving for Uz, Initial residual = 0.0182908, Final residual = 0.00174228, No Iterations 4
diagonalPCG:  Solving for p, Initial residual = 0.185525, Final residual = 0.0184678, No Iterations 209
time step continuity errors : sum local = 3.90226e-05, global = -3.57237e-06, cumulative = -3.71189e-05
ExecutionTime = 125.989 s  ClockTime = 126 s

Time = 108s

diagonalPBiCGStab:  Solving for Ux, Initial residual = 0.00801395, Final residual = 0.000676092, No Iterations 4
diagonalPBiCGStab:  Solving for Uy, Initial residual = 0.0210564, Final residual = 0.00203218, No Iterations 3
diagonalPBiCGStab:  Solving for Uz, Initial residual = 0.0188179, Final residual = 0.00165765, No Iterations 4
diagonalPCG:  Solving for p, Initial residual = 0.18369, Final residual = 0.0182883, No Iterations 91
time step continuity errors : sum local = 3.88782e-05, global = -5.59936e-06, cumulative = -4.27182e-05
ExecutionTime = 126.516 s  ClockTime = 127 s

Time = 109s

diagonalPBiCGStab:  Solving for Ux, Initial residual = 0.00808674, Final residual = 0.000648716, No Iterations 4
diagonalPBiCGStab:  Solving for Uy, Initial residual = 0.0201072, Final residual = 0.00181248, No Iterations 3
diagonalPBiCGStab:  Solving for Uz, Initial residual = 0.0182285, Final residual = 0.00152184, No Iterations 4
diagonalPCG:  Solving for p, Initial residual = 0.183464, Final residual = 0.0181085, No Iterations 43
time step continuity errors : sum local = 3.86742e-05, global = -8.0067e-06, cumulative = -5.07249e-05
ExecutionTime = 126.919 s  ClockTime = 127 s

Time = 110s

diagonalPBiCGStab:  Solving for Ux, Initial residual = 0.00774192, Final residual = 0.000601293, No Iterations 4
diagonalPBiCGStab:  Solving for Uy, Initial residual = 0.0199241, Final residual = 0.001804, No Iterations 3
diagonalPBiCGStab:  Solving for Uz, Initial residual = 0.0182317, Final residual = 0.00149534, No Iterations 4
diagonalPCG:  Solving for p, Initial residual = 0.180022, Final residual = 0.01788, No Iterations 703
time step continuity errors : sum local = 3.82571e-05, global = -3.04743e-09, cumulative = -5.0728e-05
ExecutionTime = 129.022 s  ClockTime = 129 s

Time = 111s

diagonalPBiCGStab:  Solving for Ux, Initial residual = 0.0119114, Final residual = 0.000995072, No Iterations 3
diagonalPBiCGStab:  Solving for Uy, Initial residual = 0.0202018, Final residual = 0.00154568, No Iterations 5
diagonalPBiCGStab:  Solving for Uz, Initial residual = 0.0208123, Final residual = 0.00184422, No Iterations 4
diagonalPCG:  Solving for p, Initial residual = 0.226647, Final residual = 0.0225644, No Iterations 32
time step continuity errors : sum local = 4.44755e-05, global = -2.01328e-07, cumulative = -5.09293e-05
ExecutionTime = 129.407 s  ClockTime = 130 s

Time = 112s

diagonalPBiCGStab:  Solving for Ux, Initial residual = 0.0116874, Final residual = 0.001093, No Iterations 3
diagonalPBiCGStab:  Solving for Uy, Initial residual = 0.0183527, Final residual = 0.00150613, No Iterations 4
diagonalPBiCGStab:  Solving for Uz, Initial residual = 0.0178879, Final residual = 0.00178581, No Iterations 4
diagonalPCG:  Solving for p, Initial residual = 0.219193, Final residual = 0.0214721, No Iterations 553
time step continuity errors : sum local = 4.23055e-05, global = -7.4634e-08, cumulative = -5.10039e-05
ExecutionTime = 131.114 s  ClockTime = 131 s

Time = 113s

diagonalPBiCGStab:  Solving for Ux, Initial residual = 0.00708382, Final residual = 0.000565772, No Iterations 4
diagonalPBiCGStab:  Solving for Uy, Initial residual = 0.0215208, Final residual = 0.00201376, No Iterations 4
diagonalPBiCGStab:  Solving for Uz, Initial residual = 0.0203954, Final residual = 0.00172766, No Iterations 4
diagonalPCG:  Solving for p, Initial residual = 0.201455, Final residual = 0.0201252, No Iterations 560
time step continuity errors : sum local = 3.94066e-05, global = -1.94293e-07, cumulative = -5.11982e-05
ExecutionTime = 132.857 s  ClockTime = 133 s

Time = 114s

diagonalPBiCGStab:  Solving for Ux, Initial residual = 0.0131391, Final residual = 0.00108702, No Iterations 3
diagonalPBiCGStab:  Solving for Uy, Initial residual = 0.0225505, Final residual = 0.00200196, No Iterations 5
diagonalPBiCGStab:  Solving for Uz, Initial residual = 0.0199605, Final residual = 0.00154425, No Iterations 4
diagonalPCG:  Solving for p, Initial residual = 0.183086, Final residual = 0.0180891, No Iterations 153
time step continuity errors : sum local = 4.48218e-05, global = -1.30319e-06, cumulative = -5.25014e-05
ExecutionTime = 133.553 s  ClockTime = 134 s

Time = 115s

diagonalPBiCGStab:  Solving for Ux, Initial residual = 0.0122494, Final residual = 0.00121703, No Iterations 3
diagonalPBiCGStab:  Solving for Uy, Initial residual = 0.0233855, Final residual = 0.00135032, No Iterations 6
diagonalPBiCGStab:  Solving for Uz, Initial residual = 0.0186522, Final residual = 0.00146672, No Iterations 4
diagonalPCG:  Solving for p, Initial residual = 0.17724, Final residual = 0.0176935, No Iterations 567
time step continuity errors : sum local = 4.39552e-05, global = 9.12613e-07, cumulative = -5.15888e-05
ExecutionTime = 135.34 s  ClockTime = 136 s

Time = 116s

diagonalPBiCGStab:  Solving for Ux, Initial residual = 0.00735789, Final residual = 0.000710263, No Iterations 4
diagonalPBiCGStab:  Solving for Uy, Initial residual = 0.022306, Final residual = 0.0014781, No Iterations 5
diagonalPBiCGStab:  Solving for Uz, Initial residual = 0.0197836, Final residual = 0.0016931, No Iterations 4
diagonalPCG:  Solving for p, Initial residual = 0.21811, Final residual = 0.0217054, No Iterations 105
time step continuity errors : sum local = 4.07045e-05, global = -3.30722e-06, cumulative = -5.4896e-05
ExecutionTime = 135.922 s  ClockTime = 136 s

Time = 117s

diagonalPBiCGStab:  Solving for Ux, Initial residual = 0.00706774, Final residual = 0.000646322, No Iterations 4
diagonalPBiCGStab:  Solving for Uy, Initial residual = 0.0180247, Final residual = 0.00109063, No Iterations 5
diagonalPBiCGStab:  Solving for Uz, Initial residual = 0.0181896, Final residual = 0.00133739, No Iterations 4
diagonalPCG:  Solving for p, Initial residual = 0.216977, Final residual = 0.0216575, No Iterations 37
time step continuity errors : sum local = 4.11972e-05, global = -1.02082e-06, cumulative = -5.59169e-05
ExecutionTime = 136.321 s  ClockTime = 136 s

Time = 118s

diagonalPBiCGStab:  Solving for Ux, Initial residual = 0.00668796, Final residual = 0.000589412, No Iterations 4
diagonalPBiCGStab:  Solving for Uy, Initial residual = 0.0178118, Final residual = 0.00107187, No Iterations 5
diagonalPBiCGStab:  Solving for Uz, Initial residual = 0.0177173, Final residual = 0.00151799, No Iterations 4
diagonalPCG:  Solving for p, Initial residual = 0.215019, Final residual = 0.0212856, No Iterations 227
time step continuity errors : sum local = 4.03505e-05, global = -3.06124e-06, cumulative = -5.89781e-05
ExecutionTime = 137.204 s  ClockTime = 137 s

Time = 119s

diagonalPBiCGStab:  Solving for Ux, Initial residual = 0.005468, Final residual = 0.000444955, No Iterations 4
diagonalPBiCGStab:  Solving for Uy, Initial residual = 0.0196233, Final residual = 0.00121377, No Iterations 5
diagonalPBiCGStab:  Solving for Uz, Initial residual = 0.0184203, Final residual = 0.00163962, No Iterations 4
diagonalPCG:  Solving for p, Initial residual = 0.210999, Final residual = 0.0209871, No Iterations 88
time step continuity errors : sum local = 3.9683e-05, global = -2.94896e-06, cumulative = -6.19271e-05
ExecutionTime = 137.731 s  ClockTime = 138 s

Time = 120s

diagonalPBiCGStab:  Solving for Ux, Initial residual = 0.00534829, Final residual = 0.000421205, No Iterations 4
diagonalPBiCGStab:  Solving for Uy, Initial residual = 0.0210432, Final residual = 0.0011564, No Iterations 5
diagonalPBiCGStab:  Solving for Uz, Initial residual = 0.0180059, Final residual = 0.0015783, No Iterations 4
diagonalPCG:  Solving for p, Initial residual = 0.208813, Final residual = 0.0206359, No Iterations 116
time step continuity errors : sum local = 3.90495e-05, global = -2.91636e-06, cumulative = -6.48434e-05
ExecutionTime = 138.331 s  ClockTime = 139 s

Time = 121s

diagonalPBiCGStab:  Solving for Ux, Initial residual = 0.00559808, Final residual = 0.000548693, No Iterations 4
diagonalPBiCGStab:  Solving for Uy, Initial residual = 0.0207974, Final residual = 0.0014853, No Iterations 4
diagonalPBiCGStab:  Solving for Uz, Initial residual = 0.0176661, Final residual = 0.00154305, No Iterations 4
diagonalPCG:  Solving for p, Initial residual = 0.207859, Final residual = 0.0206749, No Iterations 35
time step continuity errors : sum local = 3.89333e-05, global = -5.12424e-06, cumulative = -6.99677e-05
ExecutionTime = 138.719 s  ClockTime = 139 s

Time = 122s

diagonalPBiCGStab:  Solving for Ux, Initial residual = 0.00549438, Final residual = 0.000502781, No Iterations 4
diagonalPBiCGStab:  Solving for Uy, Initial residual = 0.0205283, Final residual = 0.00169187, No Iterations 4
diagonalPBiCGStab:  Solving for Uz, Initial residual = 0.0173765, Final residual = 0.00149001, No Iterations 4
diagonalPCG:  Solving for p, Initial residual = 0.206216, Final residual = 0.0204726, No Iterations 212
time step continuity errors : sum local = 3.85543e-05, global = -2.37359e-06, cumulative = -7.23412e-05
ExecutionTime = 139.56 s  ClockTime = 140 s

Time = 123s

diagonalPBiCGStab:  Solving for Ux, Initial residual = 0.00644091, Final residual = 0.000551643, No Iterations 4
diagonalPBiCGStab:  Solving for Uy, Initial residual = 0.0189867, Final residual = 0.00186864, No Iterations 4
diagonalPBiCGStab:  Solving for Uz, Initial residual = 0.0175321, Final residual = 0.00164563, No Iterations 4
diagonalPCG:  Solving for p, Initial residual = 0.217025, Final residual = 0.0215404, No Iterations 49
time step continuity errors : sum local = 3.94133e-05, global = -3.54254e-06, cumulative = -7.58838e-05
ExecutionTime = 139.982 s  ClockTime = 140 s

Time = 124s

diagonalPBiCGStab:  Solving for Ux, Initial residual = 0.006173, Final residual = 0.000518388, No Iterations 4
diagonalPBiCGStab:  Solving for Uy, Initial residual = 0.0186278, Final residual = 0.00180486, No Iterations 4
diagonalPBiCGStab:  Solving for Uz, Initial residual = 0.0173189, Final residual = 0.00150981, No Iterations 4
diagonalPCG:  Solving for p, Initial residual = 0.213774, Final residual = 0.0211834, No Iterations 152
time step continuity errors : sum local = 3.89083e-05, global = -4.00154e-06, cumulative = -7.98853e-05
ExecutionTime = 140.669 s  ClockTime = 141 s

Time = 125s

diagonalPBiCGStab:  Solving for Ux, Initial residual = 0.00561521, Final residual = 0.000522894, No Iterations 4
diagonalPBiCGStab:  Solving for Uy, Initial residual = 0.0198497, Final residual = 0.00188347, No Iterations 4
diagonalPBiCGStab:  Solving for Uz, Initial residual = 0.0173811, Final residual = 0.00159961, No Iterations 4
diagonalPCG:  Solving for p, Initial residual = 0.20996, Final residual = 0.0209422, No Iterations 179
time step continuity errors : sum local = 3.82886e-05, global = -4.07054e-06, cumulative = -8.39559e-05
ExecutionTime = 141.411 s  ClockTime = 142 s

Time = 126s

diagonalPBiCGStab:  Solving for Ux, Initial residual = 0.005574, Final residual = 0.000542813, No Iterations 4
diagonalPBiCGStab:  Solving for Uy, Initial residual = 0.0209393, Final residual = 0.00203257, No Iterations 4
diagonalPBiCGStab:  Solving for Uz, Initial residual = 0.0176322, Final residual = 0.00169113, No Iterations 4
diagonalPCG:  Solving for p, Initial residual = 0.211335, Final residual = 0.0210659, No Iterations 132
time step continuity errors : sum local = 3.84663e-05, global = -3.39418e-06, cumulative = -8.735e-05
ExecutionTime = 142.05 s  ClockTime = 142 s

Time = 127s

diagonalPBiCGStab:  Solving for Ux, Initial residual = 0.00543498, Final residual = 0.000412832, No Iterations 4
diagonalPBiCGStab:  Solving for Uy, Initial residual = 0.0194492, Final residual = 0.00188953, No Iterations 4
diagonalPBiCGStab:  Solving for Uz, Initial residual = 0.0174433, Final residual = 0.0016605, No Iterations 4
diagonalPCG:  Solving for p, Initial residual = 0.20874, Final residual = 0.0205712, No Iterations 128
time step continuity errors : sum local = 3.76401e-05, global = -2.07004e-06, cumulative = -8.94201e-05
ExecutionTime = 142.67 s  ClockTime = 143 s

Time = 128s

diagonalPBiCGStab:  Solving for Ux, Initial residual = 0.00610309, Final residual = 0.000544597, No Iterations 4
diagonalPBiCGStab:  Solving for Uy, Initial residual = 0.019018, Final residual = 0.0017706, No Iterations 4
diagonalPBiCGStab:  Solving for Uz, Initial residual = 0.0173201, Final residual = 0.00160465, No Iterations 4
diagonalPCG:  Solving for p, Initial residual = 0.214305, Final residual = 0.0208676, No Iterations 46
time step continuity errors : sum local = 3.80635e-05, global = -1.40462e-06, cumulative = -9.08247e-05
ExecutionTime = 143.087 s  ClockTime = 143 s

Time = 129s

diagonalPBiCGStab:  Solving for Ux, Initial residual = 0.0058794, Final residual = 0.000492753, No Iterations 4
diagonalPBiCGStab:  Solving for Uy, Initial residual = 0.0188178, Final residual = 0.00165912, No Iterations 4
diagonalPBiCGStab:  Solving for Uz, Initial residual = 0.0170136, Final residual = 0.00152786, No Iterations 4
diagonalPCG:  Solving for p, Initial residual = 0.212281, Final residual = 0.0211223, No Iterations 109
time step continuity errors : sum local = 3.86811e-05, global = 1.00504e-06, cumulative = -8.98197e-05
ExecutionTime = 143.669 s  ClockTime = 144 s

Time = 130s

diagonalPBiCGStab:  Solving for Ux, Initial residual = 0.00578533, Final residual = 0.000518557, No Iterations 4
diagonalPBiCGStab:  Solving for Uy, Initial residual = 0.0204121, Final residual = 0.00173788, No Iterations 4
diagonalPBiCGStab:  Solving for Uz, Initial residual = 0.0170596, Final residual = 0.00159111, No Iterations 4
diagonalPCG:  Solving for p, Initial residual = 0.212363, Final residual = 0.020978, No Iterations 110
time step continuity errors : sum local = 3.82801e-05, global = 2.67198e-06, cumulative = -8.71477e-05
ExecutionTime = 144.247 s  ClockTime = 144 s

Time = 131s

diagonalPBiCGStab:  Solving for Ux, Initial residual = 0.00567329, Final residual = 0.000478644, No Iterations 4
diagonalPBiCGStab:  Solving for Uy, Initial residual = 0.0196262, Final residual = 0.00192834, No Iterations 3
diagonalPBiCGStab:  Solving for Uz, Initial residual = 0.0170547, Final residual = 0.00156996, No Iterations 4
diagonalPCG:  Solving for p, Initial residual = 0.21036, Final residual = 0.0209721, No Iterations 38
time step continuity errors : sum local = 3.8238e-05, global = 4.6106e-06, cumulative = -8.25371e-05
ExecutionTime = 144.636 s  ClockTime = 145 s

Time = 132s

diagonalPBiCGStab:  Solving for Ux, Initial residual = 0.00556005, Final residual = 0.00048483, No Iterations 4
diagonalPBiCGStab:  Solving for Uy, Initial residual = 0.0192688, Final residual = 0.00179799, No Iterations 3
[...]
time step continuity errors : sum local = 8.89583e-05, global = -4.84958e-06, cumulative = -0.00011208
ExecutionTime = 421.01 s  ClockTime = 421 s

Time = 468s

diagonalPBiCGStab:  Solving for Ux, Initial residual = 0.00685965, Final residual = 0.000254179, No Iterations 6
diagonalPBiCGStab:  Solving for Uy, Initial residual = 0.0121763, Final residual = 0.000933735, No Iterations 4
diagonalPBiCGStab:  Solving for Uz, Initial residual = 0.0129367, Final residual = 0.000498655, No Iterations 6
diagonalPCG:  Solving for p, Initial residual = 0.183071, Final residual = 0.0181887, No Iterations 24
time step continuity errors : sum local = 8.84219e-05, global = -9.25237e-06, cumulative = -0.000121332
ExecutionTime = 421.398 s  ClockTime = 422 s

Time = 469s

diagonalPBiCGStab:  Solving for Ux, Initial residual = 0.00680154, Final residual = 0.00063976, No Iterations 4
diagonalPBiCGStab:  Solving for Uy, Initial residual = 0.0119602, Final residual = 0.00118337, No Iterations 4
diagonalPBiCGStab:  Solving for Uz, Initial residual = 0.0125693, Final residual = 0.000855911, No Iterations 5
diagonalPCG:  Solving for p, Initial residual = 0.18103, Final residual = 0.0177439, No Iterations 42
time step continuity errors : sum local = 8.6464e-05, global = -1.53592e-05, cumulative = -0.000136691
ExecutionTime = 421.812 s  ClockTime = 422 s

Time = 470s

diagonalPBiCGStab:  Solving for Ux, Initial residual = 0.00687264, Final residual = 0.000527417, No Iterations 4
diagonalPBiCGStab:  Solving for Uy, Initial residual = 0.0121263, Final residual = 0.000965263, No Iterations 4
diagonalPBiCGStab:  Solving for Uz, Initial residual = 0.012525, Final residual = 0.000996492, No Iterations 4
diagonalPCG:  Solving for p, Initial residual = 0.179452, Final residual = 0.0179178, No Iterations 216
time step continuity errors : sum local = 8.75932e-05, global = -8.77777e-06, cumulative = -0.000145469
ExecutionTime = 422.661 s  ClockTime = 423 s

Time = 471s

diagonalPBiCGStab:  Solving for Ux, Initial residual = 0.0106916, Final residual = 0.000873029, No Iterations 4
diagonalPBiCGStab:  Solving for Uy, Initial residual = 0.0120871, Final residual = 0.000894082, No Iterations 5
diagonalPBiCGStab:  Solving for Uz, Initial residual = 0.0133395, Final residual = 0.000843787, No Iterations 5
diagonalPCG:  Solving for p, Initial residual = 0.18549, Final residual = 0.0181695, No Iterations 19
time step continuity errors : sum local = 9.2531e-05, global = -1.34467e-05, cumulative = -0.000158916
ExecutionTime = 423.027 s  ClockTime = 423 s

Time = 472s

diagonalPBiCGStab:  Solving for Ux, Initial residual = 0.0104309, Final residual = 0.000905355, No Iterations 4
diagonalPBiCGStab:  Solving for Uy, Initial residual = 0.0110721, Final residual = 0.000953301, No Iterations 4
diagonalPBiCGStab:  Solving for Uz, Initial residual = 0.0126007, Final residual = 0.000762698, No Iterations 5
diagonalPCG:  Solving for p, Initial residual = 0.182381, Final residual = 0.0181251, No Iterations 370
time step continuity errors : sum local = 9.2514e-05, global = -1.12668e-05, cumulative = -0.000170182
ExecutionTime = 424.297 s  ClockTime = 425 s

Time = 473s

diagonalPBiCGStab:  Solving for Ux, Initial residual = 0.0101649, Final residual = 0.000492853, No Iterations 5
diagonalPBiCGStab:  Solving for Uy, Initial residual = 0.0123039, Final residual = 0.00122519, No Iterations 4
diagonalPBiCGStab:  Solving for Uz, Initial residual = 0.013019, Final residual = 0.000993219, No Iterations 5
diagonalPCG:  Solving for p, Initial residual = 0.170334, Final residual = 0.0170278, No Iterations 20
time step continuity errors : sum local = 9.31371e-05, global = -8.17756e-06, cumulative = -0.00017836
ExecutionTime = 424.663 s  ClockTime = 425 s

Time = 474s

diagonalPBiCGStab:  Solving for Ux, Initial residual = 0.00993816, Final residual = 0.000431944, No Iterations 5
diagonalPBiCGStab:  Solving for Uy, Initial residual = 0.0116865, Final residual = 0.000980386, No Iterations 5
diagonalPBiCGStab:  Solving for Uz, Initial residual = 0.0125364, Final residual = 0.000953635, No Iterations 4
diagonalPCG:  Solving for p, Initial residual = 0.169385, Final residual = 0.0165796, No Iterations 29
time step continuity errors : sum local = 9.08389e-05, global = -7.08143e-06, cumulative = -0.000185441
ExecutionTime = 425.053 s  ClockTime = 425 s

Time = 475s

diagonalPBiCGStab:  Solving for Ux, Initial residual = 0.00980188, Final residual = 0.000826852, No Iterations 4
diagonalPBiCGStab:  Solving for Uy, Initial residual = 0.0115899, Final residual = 0.0011376, No Iterations 4
diagonalPBiCGStab:  Solving for Uz, Initial residual = 0.0127553, Final residual = 0.00124874, No Iterations 4
diagonalPCG:  Solving for p, Initial residual = 0.169202, Final residual = 0.0167011, No Iterations 62
time step continuity errors : sum local = 9.16647e-05, global = -6.7178e-06, cumulative = -0.000192159
ExecutionTime = 425.511 s  ClockTime = 426 s

Time = 476s

diagonalPBiCGStab:  Solving for Ux, Initial residual = 0.00982222, Final residual = 0.000498315, No Iterations 5
diagonalPBiCGStab:  Solving for Uy, Initial residual = 0.012047, Final residual = 0.000870957, No Iterations 5
diagonalPBiCGStab:  Solving for Uz, Initial residual = 0.0134653, Final residual = 0.0011084, No Iterations 4
diagonalPCG:  Solving for p, Initial residual = 0.170505, Final residual = 0.0169516, No Iterations 17
time step continuity errors : sum local = 9.32687e-05, global = -6.5047e-06, cumulative = -0.000198664
ExecutionTime = 425.87 s  ClockTime = 426 s

Time = 477s

diagonalPBiCGStab:  Solving for Ux, Initial residual = 0.0097552, Final residual = 0.000485917, No Iterations 5
diagonalPBiCGStab:  Solving for Uy, Initial residual = 0.0119462, Final residual = 0.00106973, No Iterations 4
diagonalPBiCGStab:  Solving for Uz, Initial residual = 0.0135892, Final residual = 0.000962076, No Iterations 5
diagonalPCG:  Solving for p, Initial residual = 0.170517, Final residual = 0.0170183, No Iterations 197
time step continuity errors : sum local = 9.3862e-05, global = -7.38925e-06, cumulative = -0.000206053
ExecutionTime = 426.677 s  ClockTime = 427 s

Time = 478s

diagonalPBiCGStab:  Solving for Ux, Initial residual = 0.0111239, Final residual = 0.000553528, No Iterations 5
diagonalPBiCGStab:  Solving for Uy, Initial residual = 0.0128174, Final residual = 0.00105172, No Iterations 5
diagonalPBiCGStab:  Solving for Uz, Initial residual = 0.0136152, Final residual = 0.00123352, No Iterations 4
diagonalPCG:  Solving for p, Initial residual = 0.177244, Final residual = 0.01738, No Iterations 19
time step continuity errors : sum local = 9.58865e-05, global = -6.81729e-06, cumulative = -0.000212871
ExecutionTime = 427.041 s  ClockTime = 427 s

Time = 479s

diagonalPBiCGStab:  Solving for Ux, Initial residual = 0.0110633, Final residual = 0.000865778, No Iterations 4
diagonalPBiCGStab:  Solving for Uy, Initial residual = 0.0127311, Final residual = 0.00104442, No Iterations 5
diagonalPBiCGStab:  Solving for Uz, Initial residual = 0.0135677, Final residual = 0.000938488, No Iterations 5
diagonalPCG:  Solving for p, Initial residual = 0.17892, Final residual = 0.0178555, No Iterations 92
time step continuity errors : sum local = 9.87615e-05, global = -5.32575e-06, cumulative = -0.000218196
ExecutionTime = 427.589 s  ClockTime = 428 s

Time = 480s

diagonalPBiCGStab:  Solving for Ux, Initial residual = 0.0112802, Final residual = 0.000466721, No Iterations 6
diagonalPBiCGStab:  Solving for Uy, Initial residual = 0.0134542, Final residual = 0.0012523, No Iterations 5
diagonalPBiCGStab:  Solving for Uz, Initial residual = 0.0139508, Final residual = 0.0011822, No Iterations 4
diagonalPCG:  Solving for p, Initial residual = 0.18188, Final residual = 0.0178961, No Iterations 117
time step continuity errors : sum local = 9.98503e-05, global = -1.4032e-06, cumulative = -0.000219599
ExecutionTime = 428.207 s  ClockTime = 428 s

Time = 481s

diagonalPBiCGStab:  Solving for Ux, Initial residual = 0.0111479, Final residual = 0.00107503, No Iterations 4
diagonalPBiCGStab:  Solving for Uy, Initial residual = 0.0139595, Final residual = 0.00129944, No Iterations 5
diagonalPBiCGStab:  Solving for Uz, Initial residual = 0.0143582, Final residual = 0.00132537, No Iterations 4
diagonalPCG:  Solving for p, Initial residual = 0.185743, Final residual = 0.0185539, No Iterations 80
time step continuity errors : sum local = 0.000105032, global = 1.35217e-06, cumulative = -0.000218247
ExecutionTime = 428.716 s  ClockTime = 429 s

Time = 482s

diagonalPBiCGStab:  Solving for Ux, Initial residual = 0.0103217, Final residual = 0.00091433, No Iterations 4
diagonalPBiCGStab:  Solving for Uy, Initial residual = 0.0126819, Final residual = 0.000649469, No Iterations 6
diagonalPBiCGStab:  Solving for Uz, Initial residual = 0.014662, Final residual = 0.00111363, No Iterations 5
diagonalPCG:  Solving for p, Initial residual = 0.18422, Final residual = 0.0179674, No Iterations 82
time step continuity errors : sum local = 0.000101776, global = 6.10804e-06, cumulative = -0.000212139
ExecutionTime = 429.241 s  ClockTime = 430 s

Time = 483s

diagonalPBiCGStab:  Solving for Ux, Initial residual = 0.0108191, Final residual = 0.000809541, No Iterations 4
diagonalPBiCGStab:  Solving for Uy, Initial residual = 0.0134194, Final residual = 0.0012553, No Iterations 5
diagonalPBiCGStab:  Solving for Uz, Initial residual = 0.0147071, Final residual = 0.00127622, No Iterations 5
diagonalPCG:  Solving for p, Initial residual = 0.185304, Final residual = 0.0179641, No Iterations 21
time step continuity errors : sum local = 0.000101791, global = 1.4216e-05, cumulative = -0.000197923
ExecutionTime = 429.609 s  ClockTime = 430 s

Time = 484s

diagonalPBiCGStab:  Solving for Ux, Initial residual = 0.0105763, Final residual = 0.00080672, No Iterations 4
diagonalPBiCGStab:  Solving for Uy, Initial residual = 0.0133874, Final residual = 0.00108999, No Iterations 4
diagonalPBiCGStab:  Solving for Uz, Initial residual = 0.0147152, Final residual = 0.00117323, No Iterations 4
diagonalPCG:  Solving for p, Initial residual = 0.183189, Final residual = 0.0182208, No Iterations 412
time step continuity errors : sum local = 0.000103261, global = 4.7528e-06, cumulative = -0.00019317
ExecutionTime = 430.954 s  ClockTime = 431 s

Time = 485s

diagonalPBiCGStab:  Solving for Ux, Initial residual = 0.0129259, Final residual = 0.000768239, No Iterations 5
diagonalPBiCGStab:  Solving for Uy, Initial residual = 0.0150108, Final residual = 0.00130968, No Iterations 5
diagonalPBiCGStab:  Solving for Uz, Initial residual = 0.0159907, Final residual = 0.0010099, No Iterations 5
diagonalPCG:  Solving for p, Initial residual = 0.202206, Final residual = 0.0197692, No Iterations 21
time step continuity errors : sum local = 0.000116582, global = 8.60277e-06, cumulative = -0.000184568
ExecutionTime = 431.324 s  ClockTime = 432 s

Time = 486s

diagonalPBiCGStab:  Solving for Ux, Initial residual = 0.0124368, Final residual = 0.00114886, No Iterations 4
diagonalPBiCGStab:  Solving for Uy, Initial residual = 0.0142936, Final residual = 0.00128774, No Iterations 4
diagonalPBiCGStab:  Solving for Uz, Initial residual = 0.0150274, Final residual = 0.00116451, No Iterations 4
diagonalPCG:  Solving for p, Initial residual = 0.198127, Final residual = 0.0197397, No Iterations 35
time step continuity errors : sum local = 0.000116686, global = -9.49788e-07, cumulative = -0.000185517
ExecutionTime = 431.717 s  ClockTime = 432 s

Time = 487s

diagonalPBiCGStab:  Solving for Ux, Initial residual = 0.0120995, Final residual = 0.000713446, No Iterations 5
diagonalPBiCGStab:  Solving for Uy, Initial residual = 0.014949, Final residual = 0.00144958, No Iterations 4
diagonalPBiCGStab:  Solving for Uz, Initial residual = 0.0155135, Final residual = 0.00122546, No Iterations 4
diagonalPCG:  Solving for p, Initial residual = 0.193834, Final residual = 0.0191057, No Iterations 130
time step continuity errors : sum local = 0.000113685, global = -1.0332e-05, cumulative = -0.000195849
ExecutionTime = 432.355 s  ClockTime = 433 s

Time = 488s

diagonalPBiCGStab:  Solving for Ux, Initial residual = 0.0119522, Final residual = 0.000803764, No Iterations 5
diagonalPBiCGStab:  Solving for Uy, Initial residual = 0.0159932, Final residual = 0.00133789, No Iterations 5
diagonalPBiCGStab:  Solving for Uz, Initial residual = 0.0160818, Final residual = 0.00151777, No Iterations 4
diagonalPCG:  Solving for p, Initial residual = 0.193495, Final residual = 0.0189437, No Iterations 21
time step continuity errors : sum local = 0.000113204, global = -1.89473e-05, cumulative = -0.000214797
ExecutionTime = 432.723 s  ClockTime = 433 s

Time = 489s

diagonalPBiCGStab:  Solving for Ux, Initial residual = 0.0115409, Final residual = 0.00115356, No Iterations 4
diagonalPBiCGStab:  Solving for Uy, Initial residual = 0.0157073, Final residual = 0.0012182, No Iterations 6
diagonalPBiCGStab:  Solving for Uz, Initial residual = 0.0159171, Final residual = 0.00119945, No Iterations 4
diagonalPCG:  Solving for p, Initial residual = 0.192304, Final residual = 0.0191393, No Iterations 82
time step continuity errors : sum local = 0.000115202, global = -2.05616e-05, cumulative = -0.000235358
ExecutionTime = 433.248 s  ClockTime = 434 s

Time = 490s

diagonalPBiCGStab:  Solving for Ux, Initial residual = 0.0107307, Final residual = 0.000916764, No Iterations 4
diagonalPBiCGStab:  Solving for Uy, Initial residual = 0.0149111, Final residual = 0.0013174, No Iterations 4
diagonalPBiCGStab:  Solving for Uz, Initial residual = 0.0165723, Final residual = 0.00105973, No Iterations 6
diagonalPCG:  Solving for p, Initial residual = 0.19118, Final residual = 0.0190933, No Iterations 513
time step continuity errors : sum local = 0.000115027, global = 1.0226e-06, cumulative = -0.000234336
ExecutionTime = 434.876 s  ClockTime = 435 s

Time = 491s

diagonalPBiCGStab:  Solving for Ux, Initial residual = 0.0171756, Final residual = 0.00167439, No Iterations 4
diagonalPBiCGStab:  Solving for Uy, Initial residual = 0.0174535, Final residual = 0.0014203, No Iterations 5
diagonalPBiCGStab:  Solving for Uz, Initial residual = 0.0182061, Final residual = 0.00155521, No Iterations 4
diagonalPCG:  Solving for p, Initial residual = 0.20491, Final residual = 0.0204372, No Iterations 37
time step continuity errors : sum local = 0.000133061, global = 1.65853e-06, cumulative = -0.000232677
ExecutionTime = 435.28 s  ClockTime = 436 s

Time = 492s

diagonalPBiCGStab:  Solving for Ux, Initial residual = 0.0169431, Final residual = 0.00123786, No Iterations 4
diagonalPBiCGStab:  Solving for Uy, Initial residual = 0.0158775, Final residual = 0.00123811, No Iterations 4
diagonalPBiCGStab:  Solving for Uz, Initial residual = 0.0164193, Final residual = 0.000712025, No Iterations 6
diagonalPCG:  Solving for p, Initial residual = 0.199571, Final residual = 0.0197887, No Iterations 560
time step continuity errors : sum local = 0.000129714, global = 2.99001e-06, cumulative = -0.000229687
ExecutionTime = 437.026 s  ClockTime = 437 s

Time = 493s

diagonalPBiCGStab:  Solving for Ux, Initial residual = 0.0117806, Final residual = 0.00112852, No Iterations 4
diagonalPBiCGStab:  Solving for Uy, Initial residual = 0.0176854, Final residual = 0.00138941, No Iterations 5
diagonalPBiCGStab:  Solving for Uz, Initial residual = 0.0176492, Final residual = 0.00158518, No Iterations 4
diagonalPCG:  Solving for p, Initial residual = 0.214482, Final residual = 0.0213412, No Iterations 20
time step continuity errors : sum local = 0.000121032, global = 2.2263e-05, cumulative = -0.000207424
ExecutionTime = 437.388 s  ClockTime = 438 s

Time = 494s

diagonalPBiCGStab:  Solving for Ux, Initial residual = 0.0109905, Final residual = 0.00091964, No Iterations 5
diagonalPBiCGStab:  Solving for Uy, Initial residual = 0.0165748, Final residual = 0.00136155, No Iterations 4
diagonalPBiCGStab:  Solving for Uz, Initial residual = 0.0162515, Final residual = 0.00141593, No Iterations 5
diagonalPCG:  Solving for p, Initial residual = 0.214121, Final residual = 0.0210806, No Iterations 98
time step continuity errors : sum local = 0.000119909, global = 1.75188e-05, cumulative = -0.000189905
ExecutionTime = 437.951 s  ClockTime = 438 s

Time = 495s

diagonalPBiCGStab:  Solving for Ux, Initial residual = 0.0112919, Final residual = 0.000846187, No Iterations 4
diagonalPBiCGStab:  Solving for Uy, Initial residual = 0.0176146, Final residual = 0.00153116, No Iterations 5
diagonalPBiCGStab:  Solving for Uz, Initial residual = 0.0164069, Final residual = 0.00104822, No Iterations 5
diagonalPCG:  Solving for p, Initial residual = 0.214542, Final residual = 0.0213094, No Iterations 43
time step continuity errors : sum local = 0.000122502, global = 1.7168e-05, cumulative = -0.000172737
ExecutionTime = 438.373 s  ClockTime = 439 s

Time = 496s

diagonalPBiCGStab:  Solving for Ux, Initial residual = 0.0111225, Final residual = 0.000886865, No Iterations 4
diagonalPBiCGStab:  Solving for Uy, Initial residual = 0.0177621, Final residual = 0.00136827, No Iterations 4
diagonalPBiCGStab:  Solving for Uz, Initial residual = 0.0165292, Final residual = 0.00109959, No Iterations 5
diagonalPCG:  Solving for p, Initial residual = 0.215536, Final residual = 0.0214938, No Iterations 204
time step continuity errors : sum local = 0.000124335, global = 1.28753e-05, cumulative = -0.000159862
ExecutionTime = 439.198 s  ClockTime = 439 s

Time = 497s

diagonalPBiCGStab:  Solving for Ux, Initial residual = 0.0110468, Final residual = 0.000135629, No Iterations 8
diagonalPBiCGStab:  Solving for Uy, Initial residual = 0.0174483, Final residual = 0.0014081, No Iterations 4
diagonalPBiCGStab:  Solving for Uz, Initial residual = 0.0168714, Final residual = 0.000902072, No Iterations 6
diagonalPCG:  Solving for p, Initial residual = 0.217294, Final residual = 0.0209828, No Iterations 20
time step continuity errors : sum local = 0.00012453, global = 5.89652e-06, cumulative = -0.000153965
ExecutionTime = 439.589 s  ClockTime = 440 s

Time = 498s

diagonalPBiCGStab:  Solving for Ux, Initial residual = 0.0109164, Final residual = 0.00076828, No Iterations 5
diagonalPBiCGStab:  Solving for Uy, Initial residual = 0.0173944, Final residual = 0.00143741, No Iterations 4
diagonalPBiCGStab:  Solving for Uz, Initial residual = 0.0165847, Final residual = 0.00142664, No Iterations 4
diagonalPCG:  Solving for p, Initial residual = 0.216644, Final residual = 0.0215786, No Iterations 96
time step continuity errors : sum local = 0.000129161, global = -6.42549e-07, cumulative = -0.000154608
ExecutionTime = 440.14 s  ClockTime = 440 s

Time = 499s

diagonalPBiCGStab:  Solving for Ux, Initial residual = 0.0109319, Final residual = 0.000440701, No Iterations 6
diagonalPBiCGStab:  Solving for Uy, Initial residual = 0.0178701, Final residual = 0.00148877, No Iterations 4
diagonalPBiCGStab:  Solving for Uz, Initial residual = 0.017125, Final residual = 0.00157354, No Iterations 4
diagonalPCG:  Solving for p, Initial residual = 0.217924, Final residual = 0.0217117, No Iterations 145
time step continuity errors : sum local = 0.000130374, global = -9.33669e-06, cumulative = -0.000163945
ExecutionTime = 440.82 s  ClockTime = 441 s

Time = 500s

diagonalPBiCGStab:  Solving for Ux, Initial residual = 0.0121149, Final residual = 0.0004289, No Iterations 6
diagonalPBiCGStab:  Solving for Uy, Initial residual = 0.0180266, Final residual = 0.00149499, No Iterations 4
diagonalPBiCGStab:  Solving for Uz, Initial residual = 0.0177978, Final residual = 0.00130264, No Iterations 5
diagonalPCG:  Solving for p, Initial residual = 0.223331, Final residual = 0.0222978, No Iterations 32
time step continuity errors : sum local = 0.000133447, global = -1.36182e-05, cumulative = -0.000177563
ExecutionTime = 441.37 s  ClockTime = 442 s

End

Finalising parallel run
