/*---------------------------------------------------------------------------*\
  =========                 |
  \\      /  F ield         | OpenFOAM: The Open Source CFD Toolbox
   \\    /   O peration     | Website:  https://openfoam.org
    \\  /    A nd           | Version:  11
     \\/     M anipulation  |
\*---------------------------------------------------------------------------*/
Build  : 11
Exec   : foamRun -parallel
Date   : Nov 01 2024
Time   : 04:17:57
Host   : "skynet-linux"
PID    : 33410
I/O    : uncollated
Case   : /home/humberto/casesXCALibre/BFS_3D_5mm_OF11
nProcs : 6
Slaves : 
5
(
"skynet-linux.33411"
"skynet-linux.33412"
"skynet-linux.33413"
"skynet-linux.33414"
"skynet-linux.33415"
)

Pstream initialised with:
    floatTransfer      : false
    nProcsSimpleSum    : 0
    commsType          : nonBlocking
    polling iterations : 0
sigFpe : Enabling floating point exception trapping (FOAM_SIGFPE).
fileModificationChecking : Monitoring run-time modified files using timeStampMaster (fileModificationSkew 10)
allowSystemOperations : Allowing user-supplied system call operations

// * * * * * * * * * * * * * * * * * * * * * * * * * * * * * * * * * * * * * //
Create time

Create mesh for time = 0

Selecting solver incompressibleFluid
Selecting viscosity model constant
Selecting turbulence model type laminar
Selecting laminar stress model Stokes
No MRF models present


SIMPLE: Convergence criteria found
        p: tolerance 1e-07
        U: tolerance 1e-07
        "(k|epsilon|omega|f|v2)": tolerance 1e-07


SIMPLE: Operating solver in steady-state mode with 1 outer corrector
SIMPLE: Operating solver in SIMPLE mode



Starting time loop

Time = 1s

DILUPBiCGStab:  Solving for Ux, Initial residual = 1, Final residual = 0.0214275, No Iterations 4
DILUPBiCGStab:  Solving for Uy, Initial residual = 1, Final residual = 0.0810205, No Iterations 1
DILUPBiCGStab:  Solving for Uz, Initial residual = 1, Final residual = 0.095667, No Iterations 1
GAMG:  Solving for p, Initial residual = 1, Final residual = 0.0856075, No Iterations 10
time step continuity errors : sum local = 2.41445e-05, global = 4.53246e-06, cumulative = 4.53246e-06
ExecutionTime = 0.75751 s  ClockTime = 1 s

Time = 2s

DILUPBiCGStab:  Solving for Ux, Initial residual = 0.878035, Final residual = 0.0418543, No Iterations 2
DILUPBiCGStab:  Solving for Uy, Initial residual = 0.446984, Final residual = 0.0354537, No Iterations 2
DILUPBiCGStab:  Solving for Uz, Initial residual = 0.379374, Final residual = 0.0310552, No Iterations 1
GAMG:  Solving for p, Initial residual = 0.212408, Final residual = 0.0146665, No Iterations 3
time step continuity errors : sum local = 0.00123419, global = 0.000103993, cumulative = 0.000108526
ExecutionTime = 1.09217 s  ClockTime = 1 s

Time = 3s

DILUPBiCGStab:  Solving for Ux, Initial residual = 0.315914, Final residual = 0.0218001, No Iterations 2
DILUPBiCGStab:  Solving for Uy, Initial residual = 0.350287, Final residual = 0.0249089, No Iterations 2
DILUPBiCGStab:  Solving for Uz, Initial residual = 0.421023, Final residual = 0.0311575, No Iterations 1
GAMG:  Solving for p, Initial residual = 0.297308, Final residual = 0.0240652, No Iterations 5
time step continuity errors : sum local = 0.000527497, global = 3.6107e-05, cumulative = 0.000144633
ExecutionTime = 1.44563 s  ClockTime = 2 s

Time = 4s

DILUPBiCGStab:  Solving for Ux, Initial residual = 0.44467, Final residual = 0.0233141, No Iterations 2
DILUPBiCGStab:  Solving for Uy, Initial residual = 0.341801, Final residual = 0.0303434, No Iterations 1
DILUPBiCGStab:  Solving for Uz, Initial residual = 0.419304, Final residual = 0.030831, No Iterations 1
GAMG:  Solving for p, Initial residual = 0.293644, Final residual = 0.0153554, No Iterations 3
time step continuity errors : sum local = 0.000665143, global = -7.19272e-05, cumulative = 7.27056e-05
ExecutionTime = 1.76769 s  ClockTime = 2 s

Time = 5s

DILUPBiCGStab:  Solving for Ux, Initial residual = 0.615316, Final residual = 0.0293276, No Iterations 2
DILUPBiCGStab:  Solving for Uy, Initial residual = 0.244783, Final residual = 0.0204616, No Iterations 2
DILUPBiCGStab:  Solving for Uz, Initial residual = 0.202153, Final residual = 0.0182363, No Iterations 1
GAMG:  Solving for p, Initial residual = 0.255396, Final residual = 0.0155718, No Iterations 3
time step continuity errors : sum local = 0.000961978, global = -7.42879e-05, cumulative = -1.58233e-06
ExecutionTime = 2.0966 s  ClockTime = 2 s

Time = 6s

DILUPBiCGStab:  Solving for Ux, Initial residual = 0.439595, Final residual = 0.0289461, No Iterations 2
DILUPBiCGStab:  Solving for Uy, Initial residual = 0.368222, Final residual = 0.0330742, No Iterations 2
DILUPBiCGStab:  Solving for Uz, Initial residual = 0.350699, Final residual = 0.0317017, No Iterations 1
GAMG:  Solving for p, Initial residual = 0.287705, Final residual = 0.0168281, No Iterations 4
time step continuity errors : sum local = 0.000495118, global = 8.71987e-05, cumulative = 8.56164e-05
ExecutionTime = 2.43897 s  ClockTime = 3 s

Time = 7s

DILUPBiCGStab:  Solving for Ux, Initial residual = 0.602335, Final residual = 0.0379584, No Iterations 2
DILUPBiCGStab:  Solving for Uy, Initial residual = 0.358231, Final residual = 0.0317151, No Iterations 2
DILUPBiCGStab:  Solving for Uz, Initial residual = 0.447195, Final residual = 0.0418245, No Iterations 1
GAMG:  Solving for p, Initial residual = 0.308255, Final residual = 0.0181927, No Iterations 3
time step continuity errors : sum local = 0.000557935, global = 2.78187e-05, cumulative = 0.000113435
ExecutionTime = 2.76904 s  ClockTime = 3 s

Time = 8s

DILUPBiCGStab:  Solving for Ux, Initial residual = 0.735476, Final residual = 0.0425311, No Iterations 2
DILUPBiCGStab:  Solving for Uy, Initial residual = 0.284423, Final residual = 0.0278888, No Iterations 2
DILUPBiCGStab:  Solving for Uz, Initial residual = 0.249012, Final residual = 0.0116642, No Iterations 2
GAMG:  Solving for p, Initial residual = 0.332455, Final residual = 0.0184432, No Iterations 3
time step continuity errors : sum local = 0.000507698, global = 3.46704e-05, cumulative = 0.000148105
ExecutionTime = 3.10655 s  ClockTime = 3 s

Time = 9s

DILUPBiCGStab:  Solving for Ux, Initial residual = 0.357189, Final residual = 0.0227854, No Iterations 2
DILUPBiCGStab:  Solving for Uy, Initial residual = 0.384208, Final residual = 0.0311349, No Iterations 2
DILUPBiCGStab:  Solving for Uz, Initial residual = 0.36288, Final residual = 0.0251049, No Iterations 2
GAMG:  Solving for p, Initial residual = 0.730891, Final residual = 0.0338611, No Iterations 4
time step continuity errors : sum local = 0.000338972, global = -3.52811e-05, cumulative = 0.000112824
ExecutionTime = 3.45583 s  ClockTime = 4 s

Time = 10s

DILUPBiCGStab:  Solving for Ux, Initial residual = 0.331162, Final residual = 0.0206789, No Iterations 2
DILUPBiCGStab:  Solving for Uy, Initial residual = 0.259034, Final residual = 0.0144787, No Iterations 2
DILUPBiCGStab:  Solving for Uz, Initial residual = 0.348936, Final residual = 0.0034598, No Iterations 3
GAMG:  Solving for p, Initial residual = 0.290451, Final residual = 0.0232361, No Iterations 3
time step continuity errors : sum local = 0.000615525, global = -1.86484e-05, cumulative = 9.41759e-05
ExecutionTime = 3.81064 s  ClockTime = 4 s

Time = 11s

DILUPBiCGStab:  Solving for Ux, Initial residual = 0.332117, Final residual = 0.0198017, No Iterations 2
DILUPBiCGStab:  Solving for Uy, Initial residual = 0.228353, Final residual = 0.0138839, No Iterations 2
DILUPBiCGStab:  Solving for Uz, Initial residual = 0.226051, Final residual = 0.0116593, No Iterations 2
GAMG:  Solving for p, Initial residual = 0.295308, Final residual = 0.0171303, No Iterations 3
time step continuity errors : sum local = 0.000439032, global = -3.12569e-05, cumulative = 6.2919e-05
ExecutionTime = 4.16352 s  ClockTime = 4 s

Time = 12s

DILUPBiCGStab:  Solving for Ux, Initial residual = 0.218718, Final residual = 0.0141988, No Iterations 2
DILUPBiCGStab:  Solving for Uy, Initial residual = 0.359222, Final residual = 0.0345578, No Iterations 2
DILUPBiCGStab:  Solving for Uz, Initial residual = 0.331855, Final residual = 0.0225738, No Iterations 2
GAMG:  Solving for p, Initial residual = 0.576621, Final residual = 0.0272502, No Iterations 4
time step continuity errors : sum local = 0.000343366, global = 2.36973e-06, cumulative = 6.52887e-05
ExecutionTime = 4.51261 s  ClockTime = 5 s

Time = 13s

DILUPBiCGStab:  Solving for Ux, Initial residual = 0.535834, Final residual = 0.0331055, No Iterations 2
DILUPBiCGStab:  Solving for Uy, Initial residual = 0.291866, Final residual = 0.022331, No Iterations 2
DILUPBiCGStab:  Solving for Uz, Initial residual = 0.35441, Final residual = 0.0163283, No Iterations 2
GAMG:  Solving for p, Initial residual = 0.327874, Final residual = 0.027353, No Iterations 3
time step continuity errors : sum local = 0.000631353, global = -3.04415e-06, cumulative = 6.22446e-05
ExecutionTime = 4.85051 s  ClockTime = 5 s

Time = 14s

DILUPBiCGStab:  Solving for Ux, Initial residual = 0.635209, Final residual = 0.0499301, No Iterations 2
DILUPBiCGStab:  Solving for Uy, Initial residual = 0.228947, Final residual = 0.00275002, No Iterations 3
DILUPBiCGStab:  Solving for Uz, Initial residual = 0.256563, Final residual = 0.0129538, No Iterations 2
GAMG:  Solving for p, Initial residual = 0.317755, Final residual = 0.0208744, No Iterations 3
time step continuity errors : sum local = 0.000445687, global = 2.66085e-05, cumulative = 8.88531e-05
ExecutionTime = 5.20671 s  ClockTime = 5 s

Time = 15s

DILUPBiCGStab:  Solving for Ux, Initial residual = 0.391178, Final residual = 0.0242163, No Iterations 2
DILUPBiCGStab:  Solving for Uy, Initial residual = 0.377155, Final residual = 0.0299596, No Iterations 2
DILUPBiCGStab:  Solving for Uz, Initial residual = 0.364496, Final residual = 0.0233365, No Iterations 2
GAMG:  Solving for p, Initial residual = 0.675895, Final residual = 0.0304837, No Iterations 4
time step continuity errors : sum local = 0.000292442, global = 9.60936e-06, cumulative = 9.84624e-05
ExecutionTime = 5.55632 s  ClockTime = 6 s

Time = 16s

DILUPBiCGStab:  Solving for Ux, Initial residual = 0.277546, Final residual = 0.0165607, No Iterations 2
DILUPBiCGStab:  Solving for Uy, Initial residual = 0.250424, Final residual = 0.0181028, No Iterations 2
DILUPBiCGStab:  Solving for Uz, Initial residual = 0.301598, Final residual = 0.0288455, No Iterations 2
GAMG:  Solving for p, Initial residual = 0.374416, Final residual = 0.0335005, No Iterations 3
time step continuity errors : sum local = 0.000619558, global = 2.51639e-06, cumulative = 0.000100979
ExecutionTime = 5.8939 s  ClockTime = 6 s

Time = 17s

DILUPBiCGStab:  Solving for Ux, Initial residual = 0.208927, Final residual = 0.0139483, No Iterations 2
DILUPBiCGStab:  Solving for Uy, Initial residual = 0.183716, Final residual = 0.0120876, No Iterations 2
DILUPBiCGStab:  Solving for Uz, Initial residual = 0.238523, Final residual = 0.016846, No Iterations 2
GAMG:  Solving for p, Initial residual = 0.350371, Final residual = 0.0299113, No Iterations 3
time step continuity errors : sum local = 0.000511128, global = -2.05383e-05, cumulative = 8.04405e-05
ExecutionTime = 6.23232 s  ClockTime = 6 s

Time = 18s

DILUPBiCGStab:  Solving for Ux, Initial residual = 0.199206, Final residual = 0.0150468, No Iterations 2
DILUPBiCGStab:  Solving for Uy, Initial residual = 0.287441, Final residual = 0.0272203, No Iterations 2
DILUPBiCGStab:  Solving for Uz, Initial residual = 0.331734, Final residual = 0.02225, No Iterations 2
GAMG:  Solving for p, Initial residual = 0.691568, Final residual = 0.0550041, No Iterations 3
time step continuity errors : sum local = 0.000448913, global = 2.16345e-05, cumulative = 0.000102075
ExecutionTime = 6.56962 s  ClockTime = 7 s

Time = 19s

DILUPBiCGStab:  Solving for Ux, Initial residual = 0.430932, Final residual = 0.0245465, No Iterations 2
DILUPBiCGStab:  Solving for Uy, Initial residual = 0.258574, Final residual = 0.0228691, No Iterations 2
DILUPBiCGStab:  Solving for Uz, Initial residual = 0.28265, Final residual = 0.0218888, No Iterations 2
GAMG:  Solving for p, Initial residual = 0.430074, Final residual = 0.0332605, No Iterations 3
time step continuity errors : sum local = 0.00055175, global = -8.99297e-07, cumulative = 0.000101176
ExecutionTime = 6.90658 s  ClockTime = 7 s

Time = 20s

DILUPBiCGStab:  Solving for Ux, Initial residual = 0.507064, Final residual = 0.0308282, No Iterations 2
DILUPBiCGStab:  Solving for Uy, Initial residual = 0.182873, Final residual = 0.0115583, No Iterations 2
DILUPBiCGStab:  Solving for Uz, Initial residual = 0.246412, Final residual = 0.0174342, No Iterations 2
GAMG:  Solving for p, Initial residual = 0.372506, Final residual = 0.020961, No Iterations 4
time step continuity errors : sum local = 0.000300067, global = -1.20461e-05, cumulative = 8.91296e-05
ExecutionTime = 7.25654 s  ClockTime = 7 s

Time = 21s

DILUPBiCGStab:  Solving for Ux, Initial residual = 0.416353, Final residual = 0.0386665, No Iterations 2
DILUPBiCGStab:  Solving for Uy, Initial residual = 0.30204, Final residual = 0.0284272, No Iterations 2
DILUPBiCGStab:  Solving for Uz, Initial residual = 0.338978, Final residual = 0.0224423, No Iterations 2
GAMG:  Solving for p, Initial residual = 0.647628, Final residual = 0.0423412, No Iterations 3
time step continuity errors : sum local = 0.000299156, global = -1.00996e-05, cumulative = 7.903e-05
ExecutionTime = 7.5938 s  ClockTime = 8 s

Time = 22s

DILUPBiCGStab:  Solving for Ux, Initial residual = 0.336315, Final residual = 0.0189839, No Iterations 2
DILUPBiCGStab:  Solving for Uy, Initial residual = 0.278736, Final residual = 0.0213254, No Iterations 2
DILUPBiCGStab:  Solving for Uz, Initial residual = 0.266724, Final residual = 0.019796, No Iterations 2
GAMG:  Solving for p, Initial residual = 0.542271, Final residual = 0.038637, No Iterations 3
time step continuity errors : sum local = 0.000476403, global = 1.35539e-05, cumulative = 9.25839e-05
ExecutionTime = 7.93361 s  ClockTime = 8 s

Time = 23s

DILUPBiCGStab:  Solving for Ux, Initial residual = 0.15949, Final residual = 0.009809, No Iterations 2
DILUPBiCGStab:  Solving for Uy, Initial residual = 0.173296, Final residual = 0.000508659, No Iterations 4
DILUPBiCGStab:  Solving for Uz, Initial residual = 0.222947, Final residual = 0.020565, No Iterations 2
GAMG:  Solving for p, Initial residual = 0.500307, Final residual = 0.0333109, No Iterations 4
time step continuity errors : sum local = 0.000340047, global = 5.72059e-07, cumulative = 9.3156e-05
ExecutionTime = 8.31298 s  ClockTime = 9 s

Time = 24s

DILUPBiCGStab:  Solving for Ux, Initial residual = 0.160634, Final residual = 0.0107839, No Iterations 2
DILUPBiCGStab:  Solving for Uy, Initial residual = 0.224309, Final residual = 0.0152386, No Iterations 2
DILUPBiCGStab:  Solving for Uz, Initial residual = 0.313612, Final residual = 0.0253537, No Iterations 2
GAMG:  Solving for p, Initial residual = 0.729661, Final residual = 0.0606623, No Iterations 3
time step continuity errors : sum local = 0.000363638, global = 1.10896e-05, cumulative = 0.000104246
ExecutionTime = 8.65049 s  ClockTime = 9 s

Time = 25s

DILUPBiCGStab:  Solving for Ux, Initial residual = 0.361773, Final residual = 0.0289188, No Iterations 2
DILUPBiCGStab:  Solving for Uy, Initial residual = 0.259744, Final residual = 0.0202726, No Iterations 2
DILUPBiCGStab:  Solving for Uz, Initial residual = 0.266576, Final residual = 0.0196223, No Iterations 2
GAMG:  Solving for p, Initial residual = 0.597868, Final residual = 0.0587455, No Iterations 2
time step continuity errors : sum local = 0.000643393, global = -4.86502e-06, cumulative = 9.93806e-05
ExecutionTime = 8.97627 s  ClockTime = 9 s

Time = 26s

DILUPBiCGStab:  Solving for Ux, Initial residual = 0.46688, Final residual = 0.0278413, No Iterations 2
DILUPBiCGStab:  Solving for Uy, Initial residual = 0.202429, Final residual = 0.0125948, No Iterations 2
DILUPBiCGStab:  Solving for Uz, Initial residual = 0.220196, Final residual = 0.0116053, No Iterations 2
GAMG:  Solving for p, Initial residual = 0.525517, Final residual = 0.0349476, No Iterations 4
time step continuity errors : sum local = 0.000342006, global = -3.33613e-06, cumulative = 9.60444e-05
ExecutionTime = 9.32513 s  ClockTime = 10 s

Time = 27s

DILUPBiCGStab:  Solving for Ux, Initial residual = 0.381873, Final residual = 0.0254706, No Iterations 2
DILUPBiCGStab:  Solving for Uy, Initial residual = 0.244126, Final residual = 0.00990401, No Iterations 2
DILUPBiCGStab:  Solving for Uz, Initial residual = 0.305669, Final residual = 0.020998, No Iterations 2
GAMG:  Solving for p, Initial residual = 0.514922, Final residual = 0.0271378, No Iterations 4
time step continuity errors : sum local = 0.000212759, global = -2.91573e-06, cumulative = 9.31287e-05
ExecutionTime = 9.68119 s  ClockTime = 10 s

Time = 28s

DILUPBiCGStab:  Solving for Ux, Initial residual = 0.529818, Final residual = 0.0308596, No Iterations 2
DILUPBiCGStab:  Solving for Uy, Initial residual = 0.32536, Final residual = 0.0242653, No Iterations 2
DILUPBiCGStab:  Solving for Uz, Initial residual = 0.275192, Final residual = 0.020447, No Iterations 2
GAMG:  Solving for p, Initial residual = 0.635963, Final residual = 0.0539131, No Iterations 2
time step continuity errors : sum local = 0.000549683, global = 8.63943e-06, cumulative = 0.000101768
ExecutionTime = 10.0075 s  ClockTime = 10 s

Time = 29s

DILUPBiCGStab:  Solving for Ux, Initial residual = 0.260518, Final residual = 0.015488, No Iterations 2
DILUPBiCGStab:  Solving for Uy, Initial residual = 0.2101, Final residual = 0.0129474, No Iterations 2
DILUPBiCGStab:  Solving for Uz, Initial residual = 0.207291, Final residual = 0.0116529, No Iterations 2
GAMG:  Solving for p, Initial residual = 0.584318, Final residual = 0.0385219, No Iterations 4
time step continuity errors : sum local = 0.00038454, global = 2.43774e-07, cumulative = 0.000102012
ExecutionTime = 10.3562 s  ClockTime = 11 s

Time = 30s

DILUPBiCGStab:  Solving for Ux, Initial residual = 0.138258, Final residual = 0.00894961, No Iterations 2
DILUPBiCGStab:  Solving for Uy, Initial residual = 0.195952, Final residual = 0.00629186, No Iterations 2
DILUPBiCGStab:  Solving for Uz, Initial residual = 0.280237, Final residual = 0.0144631, No Iterations 2
GAMG:  Solving for p, Initial residual = 0.611, Final residual = 0.0406343, No Iterations 4
time step continuity errors : sum local = 0.000274643, global = 3.30796e-06, cumulative = 0.00010532
ExecutionTime = 10.7137 s  ClockTime = 11 s

Time = 31s

DILUPBiCGStab:  Solving for Ux, Initial residual = 0.330173, Final residual = 0.0210158, No Iterations 2
DILUPBiCGStab:  Solving for Uy, Initial residual = 0.286758, Final residual = 0.0238064, No Iterations 2
DILUPBiCGStab:  Solving for Uz, Initial residual = 0.27108, Final residual = 0.0160328, No Iterations 2
GAMG:  Solving for p, Initial residual = 0.686764, Final residual = 0.0527409, No Iterations 2
time step continuity errors : sum local = 0.000472735, global = -5.30664e-07, cumulative = 0.000104789
ExecutionTime = 11.0397 s  ClockTime = 11 s

Time = 32s

DILUPBiCGStab:  Solving for Ux, Initial residual = 0.420762, Final residual = 0.0240821, No Iterations 2
DILUPBiCGStab:  Solving for Uy, Initial residual = 0.227153, Final residual = 0.0154604, No Iterations 2
DILUPBiCGStab:  Solving for Uz, Initial residual = 0.202322, Final residual = 0.0126886, No Iterations 2
GAMG:  Solving for p, Initial residual = 0.658759, Final residual = 0.0414477, No Iterations 4
time step continuity errors : sum local = 0.000412558, global = 6.82372e-06, cumulative = 0.000111613
ExecutionTime = 11.3879 s  ClockTime = 12 s

Time = 33s

DILUPBiCGStab:  Solving for Ux, Initial residual = 0.287867, Final residual = 0.0174026, No Iterations 2
DILUPBiCGStab:  Solving for Uy, Initial residual = 0.206879, Final residual = 0.0121425, No Iterations 2
DILUPBiCGStab:  Solving for Uz, Initial residual = 0.273803, Final residual = 0.0126695, No Iterations 2
GAMG:  Solving for p, Initial residual = 0.610701, Final residual = 0.0447221, No Iterations 4
time step continuity errors : sum local = 0.000314024, global = -5.43885e-07, cumulative = 0.000111069
ExecutionTime = 11.7384 s  ClockTime = 12 s

Time = 34s

DILUPBiCGStab:  Solving for Ux, Initial residual = 0.47917, Final residual = 0.0361559, No Iterations 2
DILUPBiCGStab:  Solving for Uy, Initial residual = 0.333786, Final residual = 0.0104951, No Iterations 2
DILUPBiCGStab:  Solving for Uz, Initial residual = 0.283481, Final residual = 0.0226734, No Iterations 2
GAMG:  Solving for p, Initial residual = 0.533546, Final residual = 0.0381105, No Iterations 2
time step continuity errors : sum local = 0.000395425, global = 1.03589e-05, cumulative = 0.000121428
ExecutionTime = 12.0729 s  ClockTime = 12 s

Time = 35s

DILUPBiCGStab:  Solving for Ux, Initial residual = 0.371944, Final residual = 0.0236417, No Iterations 2
DILUPBiCGStab:  Solving for Uy, Initial residual = 0.272159, Final residual = 0.0192495, No Iterations 2
DILUPBiCGStab:  Solving for Uz, Initial residual = 0.21371, Final residual = 0.0162654, No Iterations 2
GAMG:  Solving for p, Initial residual = 0.551923, Final residual = 0.0424847, No Iterations 3
time step continuity errors : sum local = 0.000542051, global = 3.51754e-06, cumulative = 0.000124945
ExecutionTime = 12.4113 s  ClockTime = 13 s

Time = 36s

DILUPBiCGStab:  Solving for Ux, Initial residual = 0.192924, Final residual = 0.0169435, No Iterations 2
DILUPBiCGStab:  Solving for Uy, Initial residual = 0.190815, Final residual = 0.0163435, No Iterations 2
DILUPBiCGStab:  Solving for Uz, Initial residual = 0.256603, Final residual = 0.0105284, No Iterations 2
GAMG:  Solving for p, Initial residual = 0.478294, Final residual = 0.0385949, No Iterations 4
time step continuity errors : sum local = 0.000433076, global = 1.33059e-06, cumulative = 0.000126276
ExecutionTime = 12.7605 s  ClockTime = 13 s

Time = 37s

DILUPBiCGStab:  Solving for Ux, Initial residual = 0.250431, Final residual = 0.0087398, No Iterations 2
DILUPBiCGStab:  Solving for Uy, Initial residual = 0.305835, Final residual = 0.0263503, No Iterations 2
DILUPBiCGStab:  Solving for Uz, Initial residual = 0.315734, Final residual = 0.017043, No Iterations 2
GAMG:  Solving for p, Initial residual = 0.720632, Final residual = 0.0646128, No Iterations 3
time step continuity errors : sum local = 0.000466303, global = -3.06689e-06, cumulative = 0.000123209
ExecutionTime = 13.1066 s  ClockTime = 13 s

Time = 38s

DILUPBiCGStab:  Solving for Ux, Initial residual = 0.395117, Final residual = 0.0266213, No Iterations 2
DILUPBiCGStab:  Solving for Uy, Initial residual = 0.329281, Final residual = 0.0251383, No Iterations 2
DILUPBiCGStab:  Solving for Uz, Initial residual = 0.270106, Final residual = 0.0200018, No Iterations 2
GAMG:  Solving for p, Initial residual = 0.603319, Final residual = 0.0389811, No Iterations 3
time step continuity errors : sum local = 0.000532186, global = 1.12976e-05, cumulative = 0.000134507
ExecutionTime = 13.4447 s  ClockTime = 14 s

Time = 39s

DILUPBiCGStab:  Solving for Ux, Initial residual = 0.329562, Final residual = 0.0272116, No Iterations 2
DILUPBiCGStab:  Solving for Uy, Initial residual = 0.220244, Final residual = 0.0132326, No Iterations 2
DILUPBiCGStab:  Solving for Uz, Initial residual = 0.252865, Final residual = 0.0113852, No Iterations 2
GAMG:  Solving for p, Initial residual = 0.539717, Final residual = 0.0451854, No Iterations 4
time step continuity errors : sum local = 0.00049933, global = 1.46063e-06, cumulative = 0.000135967
ExecutionTime = 13.7939 s  ClockTime = 14 s

Time = 40s

DILUPBiCGStab:  Solving for Ux, Initial residual = 0.351026, Final residual = 0.0247154, No Iterations 2
DILUPBiCGStab:  Solving for Uy, Initial residual = 0.305234, Final residual = 0.0303837, No Iterations 2
DILUPBiCGStab:  Solving for Uz, Initial residual = 0.325527, Final residual = 0.0241099, No Iterations 2
GAMG:  Solving for p, Initial residual = 0.623613, Final residual = 0.0353896, No Iterations 4
time step continuity errors : sum local = 0.000290421, global = 6.6072e-06, cumulative = 0.000142575
ExecutionTime = 14.1427 s  ClockTime = 14 s

Time = 41s

DILUPBiCGStab:  Solving for Ux, Initial residual = 0.475408, Final residual = 0.0312084, No Iterations 2
DILUPBiCGStab:  Solving for Uy, Initial residual = 0.4011, Final residual = 0.0341523, No Iterations 2
DILUPBiCGStab:  Solving for Uz, Initial residual = 0.321395, Final residual = 0.0243679, No Iterations 2
GAMG:  Solving for p, Initial residual = 0.477616, Final residual = 0.0262877, No Iterations 3
time step continuity errors : sum local = 0.000471825, global = 6.53496e-06, cumulative = 0.00014911
ExecutionTime = 14.4791 s  ClockTime = 15 s

Time = 42s

DILUPBiCGStab:  Solving for Ux, Initial residual = 0.293795, Final residual = 0.0189193, No Iterations 2
DILUPBiCGStab:  Solving for Uy, Initial residual = 0.242765, Final residual = 0.016163, No Iterations 2
DILUPBiCGStab:  Solving for Uz, Initial residual = 0.261101, Final residual = 0.0129906, No Iterations 2
GAMG:  Solving for p, Initial residual = 0.424411, Final residual = 0.0295083, No Iterations 4
time step continuity errors : sum local = 0.000527699, global = -5.32389e-07, cumulative = 0.000148577
ExecutionTime = 14.828 s  ClockTime = 15 s

Time = 43s

DILUPBiCGStab:  Solving for Ux, Initial residual = 0.21237, Final residual = 0.016091, No Iterations 2
DILUPBiCGStab:  Solving for Uy, Initial residual = 0.266119, Final residual = 0.0192895, No Iterations 2
DILUPBiCGStab:  Solving for Uz, Initial residual = 0.329287, Final residual = 0.017678, No Iterations 2
GAMG:  Solving for p, Initial residual = 0.524551, Final residual = 0.0404587, No Iterations 4
time step continuity errors : sum local = 0.000455723, global = -9.39767e-06, cumulative = 0.00013918
ExecutionTime = 15.1763 s  ClockTime = 15 s

Time = 44s

DILUPBiCGStab:  Solving for Ux, Initial residual = 0.379639, Final residual = 0.0273657, No Iterations 2
DILUPBiCGStab:  Solving for Uy, Initial residual = 0.400882, Final residual = 0.0336618, No Iterations 2
DILUPBiCGStab:  Solving for Uz, Initial residual = 0.360402, Final residual = 0.0167951, No Iterations 2
GAMG:  Solving for p, Initial residual = 0.517471, Final residual = 0.0445313, No Iterations 2
time step continuity errors : sum local = 0.000720628, global = -1.84055e-05, cumulative = 0.000120774
ExecutionTime = 15.5085 s  ClockTime = 16 s

Time = 45s

DILUPBiCGStab:  Solving for Ux, Initial residual = 0.397372, Final residual = 0.0264967, No Iterations 2
DILUPBiCGStab:  Solving for Uy, Initial residual = 0.278317, Final residual = 0.0210905, No Iterations 2
DILUPBiCGStab:  Solving for Uz, Initial residual = 0.253465, Final residual = 0.0173765, No Iterations 2
GAMG:  Solving for p, Initial residual = 0.488948, Final residual = 0.0463855, No Iterations 3
time step continuity errors : sum local = 0.000780251, global = 1.17604e-05, cumulative = 0.000132534
ExecutionTime = 15.8485 s  ClockTime = 16 s

Time = 46s

DILUPBiCGStab:  Solving for Ux, Initial residual = 0.289608, Final residual = 0.0199536, No Iterations 2
DILUPBiCGStab:  Solving for Uy, Initial residual = 0.208157, Final residual = 0.00214187, No Iterations 3
DILUPBiCGStab:  Solving for Uz, Initial residual = 0.282016, Final residual = 0.0152143, No Iterations 2
GAMG:  Solving for p, Initial residual = 0.476855, Final residual = 0.0420296, No Iterations 4
time step continuity errors : sum local = 0.000502219, global = -2.54247e-06, cumulative = 0.000129992
ExecutionTime = 16.2121 s  ClockTime = 16 s

Time = 47s

DILUPBiCGStab:  Solving for Ux, Initial residual = 0.431203, Final residual = 0.0350274, No Iterations 2
DILUPBiCGStab:  Solving for Uy, Initial residual = 0.406648, Final residual = 0.0337613, No Iterations 2
DILUPBiCGStab:  Solving for Uz, Initial residual = 0.354422, Final residual = 0.0248681, No Iterations 2
GAMG:  Solving for p, Initial residual = 0.58745, Final residual = 0.0482742, No Iterations 3
time step continuity errors : sum local = 0.000592435, global = 7.61752e-06, cumulative = 0.000137609
ExecutionTime = 16.5499 s  ClockTime = 17 s

Time = 48s

DILUPBiCGStab:  Solving for Ux, Initial residual = 0.37961, Final residual = 0.0252174, No Iterations 2
DILUPBiCGStab:  Solving for Uy, Initial residual = 0.362639, Final residual = 0.0273571, No Iterations 2
DILUPBiCGStab:  Solving for Uz, Initial residual = 0.284516, Final residual = 0.0218762, No Iterations 2
GAMG:  Solving for p, Initial residual = 0.480038, Final residual = 0.034769, No Iterations 3
time step continuity errors : sum local = 0.000735501, global = -3.33457e-06, cumulative = 0.000134275
ExecutionTime = 16.8871 s  ClockTime = 17 s

Time = 49s

DILUPBiCGStab:  Solving for Ux, Initial residual = 0.222088, Final residual = 0.0192499, No Iterations 2
DILUPBiCGStab:  Solving for Uy, Initial residual = 0.236103, Final residual = 0.0163151, No Iterations 2
DILUPBiCGStab:  Solving for Uz, Initial residual = 0.288103, Final residual = 0.0279082, No Iterations 1
GAMG:  Solving for p, Initial residual = 0.409286, Final residual = 0.0356403, No Iterations 4
time step continuity errors : sum local = 0.00067469, global = -4.07982e-06, cumulative = 0.000130195
ExecutionTime = 17.2284 s  ClockTime = 17 s

Time = 50s

DILUPBiCGStab:  Solving for Ux, Initial residual = 0.300111, Final residual = 0.0204024, No Iterations 2
DILUPBiCGStab:  Solving for Uy, Initial residual = 0.387694, Final residual = 0.0247965, No Iterations 2
DILUPBiCGStab:  Solving for Uz, Initial residual = 0.396927, Final residual = 0.0210143, No Iterations 2
GAMG:  Solving for p, Initial residual = 0.73384, Final residual = 0.0379366, No Iterations 4
time step continuity errors : sum local = 0.00035982, global = -6.70678e-06, cumulative = 0.000123488
ExecutionTime = 17.5766 s  ClockTime = 18 s

Time = 51s

DILUPBiCGStab:  Solving for Ux, Initial residual = 0.48581, Final residual = 0.0338164, No Iterations 2
DILUPBiCGStab:  Solving for Uy, Initial residual = 0.461138, Final residual = 0.0371098, No Iterations 2
DILUPBiCGStab:  Solving for Uz, Initial residual = 0.373088, Final residual = 0.0266842, No Iterations 2
GAMG:  Solving for p, Initial residual = 0.502838, Final residual = 0.030101, No Iterations 3
time step continuity errors : sum local = 0.000755402, global = 1.80568e-05, cumulative = 0.000141545
ExecutionTime = 17.9142 s  ClockTime = 18 s

Time = 52s

DILUPBiCGStab:  Solving for Ux, Initial residual = 0.389764, Final residual = 0.0376653, No Iterations 2
DILUPBiCGStab:  Solving for Uy, Initial residual = 0.257409, Final residual = 0.0113923, No Iterations 2
DILUPBiCGStab:  Solving for Uz, Initial residual = 0.313214, Final residual = 0.0162256, No Iterations 2
GAMG:  Solving for p, Initial residual = 0.44203, Final residual = 0.0369989, No Iterations 4
time step continuity errors : sum local = 0.000758016, global = 1.51483e-06, cumulative = 0.00014306
ExecutionTime = 18.2775 s  ClockTime = 19 s

Time = 53s

DILUPBiCGStab:  Solving for Ux, Initial residual = 0.358968, Final residual = 0.0249681, No Iterations 2
DILUPBiCGStab:  Solving for Uy, Initial residual = 0.345457, Final residual = 0.0107535, No Iterations 2
DILUPBiCGStab:  Solving for Uz, Initial residual = 0.381829, Final residual = 0.0274973, No Iterations 2
GAMG:  Solving for p, Initial residual = 0.705448, Final residual = 0.0467772, No Iterations 4
time step continuity errors : sum local = 0.000478957, global = 1.02022e-05, cumulative = 0.000153262
ExecutionTime = 18.6323 s  ClockTime = 19 s

Time = 54s

DILUPBiCGStab:  Solving for Ux, Initial residual = 0.54824, Final residual = 0.0380415, No Iterations 2
DILUPBiCGStab:  Solving for Uy, Initial residual = 0.483463, Final residual = 0.0439377, No Iterations 2
DILUPBiCGStab:  Solving for Uz, Initial residual = 0.392591, Final residual = 0.0319658, No Iterations 2
GAMG:  Solving for p, Initial residual = 0.444856, Final residual = 0.04302, No Iterations 2
time step continuity errors : sum local = 0.00126228, global = 1.76485e-05, cumulative = 0.000170911
ExecutionTime = 18.9571 s  ClockTime = 19 s

Time = 55s

DILUPBiCGStab:  Solving for Ux, Initial residual = 0.315673, Final residual = 0.0185749, No Iterations 2
DILUPBiCGStab:  Solving for Uy, Initial residual = 0.279947, Final residual = 0.0156298, No Iterations 2
DILUPBiCGStab:  Solving for Uz, Initial residual = 0.277546, Final residual = 0.0137879, No Iterations 2
GAMG:  Solving for p, Initial residual = 0.397142, Final residual = 0.023568, No Iterations 4
time step continuity errors : sum local = 0.00070429, global = -2.25965e-05, cumulative = 0.000148314
ExecutionTime = 19.3067 s  ClockTime = 20 s

Time = 56s

DILUPBiCGStab:  Solving for Ux, Initial residual = 0.271451, Final residual = 0.00277771, No Iterations 3
DILUPBiCGStab:  Solving for Uy, Initial residual = 0.303906, Final residual = 0.00411637, No Iterations 3
DILUPBiCGStab:  Solving for Uz, Initial residual = 0.357274, Final residual = 0.0204433, No Iterations 2
GAMG:  Solving for p, Initial residual = 0.411977, Final residual = 0.0365988, No Iterations 4
time step continuity errors : sum local = 0.000788608, global = -1.88337e-05, cumulative = 0.00012948
ExecutionTime = 19.6843 s  ClockTime = 20 s

Time = 57s

DILUPBiCGStab:  Solving for Ux, Initial residual = 0.442038, Final residual = 0.0322416, No Iterations 2
DILUPBiCGStab:  Solving for Uy, Initial residual = 0.499685, Final residual = 0.0376959, No Iterations 2
DILUPBiCGStab:  Solving for Uz, Initial residual = 0.414399, Final residual = 0.0322237, No Iterations 2
GAMG:  Solving for p, Initial residual = 0.532126, Final residual = 0.0327536, No Iterations 3
time step continuity errors : sum local = 0.00085754, global = -2.30628e-05, cumulative = 0.000106418
ExecutionTime = 20.0202 s  ClockTime = 20 s

Time = 58s

DILUPBiCGStab:  Solving for Ux, Initial residual = 0.435569, Final residual = 0.0271898, No Iterations 2
DILUPBiCGStab:  Solving for Uy, Initial residual = 0.36015, Final residual = 0.0287256, No Iterations 2
DILUPBiCGStab:  Solving for Uz, Initial residual = 0.322784, Final residual = 0.0177655, No Iterations 2
GAMG:  Solving for p, Initial residual = 0.446687, Final residual = 0.0381442, No Iterations 3
time step continuity errors : sum local = 0.00120135, global = 1.98419e-05, cumulative = 0.000126259
ExecutionTime = 20.3558 s  ClockTime = 21 s

Time = 59s

DILUPBiCGStab:  Solving for Ux, Initial residual = 0.313876, Final residual = 0.0262294, No Iterations 2
DILUPBiCGStab:  Solving for Uy, Initial residual = 0.256648, Final residual = 0.0144646, No Iterations 2
DILUPBiCGStab:  Solving for Uz, Initial residual = 0.318404, Final residual = 0.0194789, No Iterations 2
GAMG:  Solving for p, Initial residual = 0.442389, Final residual = 0.0350199, No Iterations 4
time step continuity errors : sum local = 0.000753549, global = 1.93721e-05, cumulative = 0.000145632
ExecutionTime = 20.7123 s  ClockTime = 21 s

Time = 60s

DILUPBiCGStab:  Solving for Ux, Initial residual = 0.514087, Final residual = 0.0365302, No Iterations 2
DILUPBiCGStab:  Solving for Uy, Initial residual = 0.464627, Final residual = 0.036613, No Iterations 2
DILUPBiCGStab:  Solving for Uz, Initial residual = 0.363693, Final residual = 0.0232473, No Iterations 2
GAMG:  Solving for p, Initial residual = 0.532133, Final residual = 0.0503489, No Iterations 3
time step continuity errors : sum local = 0.00104612, global = 1.5184e-05, cumulative = 0.000160816
ExecutionTime = 21.0499 s  ClockTime = 21 s

Time = 61s

DILUPBiCGStab:  Solving for Ux, Initial residual = 0.499405, Final residual = 0.0343574, No Iterations 2
DILUPBiCGStab:  Solving for Uy, Initial residual = 0.425159, Final residual = 0.0316092, No Iterations 2
DILUPBiCGStab:  Solving for Uz, Initial residual = 0.303871, Final residual = 0.0205695, No Iterations 2
GAMG:  Solving for p, Initial residual = 0.424987, Final residual = 0.0304393, No Iterations 3
time step continuity errors : sum local = 0.00113424, global = 9.24827e-06, cumulative = 0.000170064
ExecutionTime = 21.387 s  ClockTime = 22 s

Time = 62s

DILUPBiCGStab:  Solving for Ux, Initial residual = 0.266375, Final residual = 0.019537, No Iterations 2
DILUPBiCGStab:  Solving for Uy, Initial residual = 0.233315, Final residual = 0.0113035, No Iterations 2
DILUPBiCGStab:  Solving for Uz, Initial residual = 0.313122, Final residual = 0.0297493, No Iterations 1
GAMG:  Solving for p, Initial residual = 0.374257, Final residual = 0.0299334, No Iterations 4
time step continuity errors : sum local = 0.00103606, global = -3.78616e-06, cumulative = 0.000166278
ExecutionTime = 21.7288 s  ClockTime = 22 s

Time = 63s

DILUPBiCGStab:  Solving for Ux, Initial residual = 0.350188, Final residual = 0.0295862, No Iterations 2
DILUPBiCGStab:  Solving for Uy, Initial residual = 0.403138, Final residual = 0.0358313, No Iterations 2
DILUPBiCGStab:  Solving for Uz, Initial residual = 0.391505, Final residual = 0.0191402, No Iterations 2
GAMG:  Solving for p, Initial residual = 0.692856, Final residual = 0.038744, No Iterations 4
time step continuity errors : sum local = 0.000605052, global = -7.64979e-06, cumulative = 0.000158628
ExecutionTime = 22.0778 s  ClockTime = 22 s

Time = 64s

DILUPBiCGStab:  Solving for Ux, Initial residual = 0.522011, Final residual = 0.038439, No Iterations 2
DILUPBiCGStab:  Solving for Uy, Initial residual = 0.524483, Final residual = 0.0400341, No Iterations 2
DILUPBiCGStab:  Solving for Uz, Initial residual = 0.373636, Final residual = 0.0293396, No Iterations 2
GAMG:  Solving for p, Initial residual = 0.464141, Final residual = 0.0268174, No Iterations 3
time step continuity errors : sum local = 0.00102733, global = -7.26538e-06, cumulative = 0.000151363
ExecutionTime = 22.4156 s  ClockTime = 23 s

Time = 65s

DILUPBiCGStab:  Solving for Ux, Initial residual = 0.364258, Final residual = 0.0318837, No Iterations 2
DILUPBiCGStab:  Solving for Uy, Initial residual = 0.2717, Final residual = 0.00320345, No Iterations 3
DILUPBiCGStab:  Solving for Uz, Initial residual = 0.317174, Final residual = 0.00289047, No Iterations 3
GAMG:  Solving for p, Initial residual = 0.417661, Final residual = 0.0269058, No Iterations 4
time step continuity errors : sum local = 0.000892607, global = 6.91011e-06, cumulative = 0.000158273
ExecutionTime = 22.7948 s  ClockTime = 23 s

Time = 66s

DILUPBiCGStab:  Solving for Ux, Initial residual = 0.373263, Final residual = 0.0126337, No Iterations 2
DILUPBiCGStab:  Solving for Uy, Initial residual = 0.342352, Final residual = 0.0275691, No Iterations 2
DILUPBiCGStab:  Solving for Uz, Initial residual = 0.356909, Final residual = 0.00332063, No Iterations 3
GAMG:  Solving for p, Initial residual = 0.577524, Final residual = 0.0331928, No Iterations 4
time step continuity errors : sum local = 0.000605904, global = 1.29751e-05, cumulative = 0.000171248
ExecutionTime = 23.1657 s  ClockTime = 23 s

Time = 67s

DILUPBiCGStab:  Solving for Ux, Initial residual = 0.568297, Final residual = 0.0354181, No Iterations 2
DILUPBiCGStab:  Solving for Uy, Initial residual = 0.535237, Final residual = 0.0395862, No Iterations 2
DILUPBiCGStab:  Solving for Uz, Initial residual = 0.359466, Final residual = 0.0309533, No Iterations 2
GAMG:  Solving for p, Initial residual = 0.458531, Final residual = 0.0452695, No Iterations 2
time step continuity errors : sum local = 0.00175503, global = 3.60199e-05, cumulative = 0.000207268
ExecutionTime = 23.492 s  ClockTime = 24 s

Time = 68s

DILUPBiCGStab:  Solving for Ux, Initial residual = 0.329492, Final residual = 0.0193574, No Iterations 2
DILUPBiCGStab:  Solving for Uy, Initial residual = 0.296178, Final residual = 0.0159388, No Iterations 2
DILUPBiCGStab:  Solving for Uz, Initial residual = 0.296745, Final residual = 0.0132936, No Iterations 2
GAMG:  Solving for p, Initial residual = 0.436517, Final residual = 0.0409378, No Iterations 3
time step continuity errors : sum local = 0.00150674, global = -1.10526e-05, cumulative = 0.000196215
ExecutionTime = 23.8296 s  ClockTime = 24 s

Time = 69s

DILUPBiCGStab:  Solving for Ux, Initial residual = 0.270884, Final residual = 0.0221686, No Iterations 2
DILUPBiCGStab:  Solving for Uy, Initial residual = 0.278893, Final residual = 0.0115329, No Iterations 2
DILUPBiCGStab:  Solving for Uz, Initial residual = 0.366839, Final residual = 0.0192543, No Iterations 2
GAMG:  Solving for p, Initial residual = 0.430034, Final residual = 0.0334028, No Iterations 4
time step continuity errors : sum local = 0.000998793, global = -2.84065e-05, cumulative = 0.000167809
ExecutionTime = 24.1839 s  ClockTime = 24 s

Time = 70s

DILUPBiCGStab:  Solving for Ux, Initial residual = 0.450411, Final residual = 0.0376878, No Iterations 2
DILUPBiCGStab:  Solving for Uy, Initial residual = 0.528185, Final residual = 0.0480231, No Iterations 2
DILUPBiCGStab:  Solving for Uz, Initial residual = 0.386452, Final residual = 0.0275723, No Iterations 2
GAMG:  Solving for p, Initial residual = 0.518013, Final residual = 0.0364989, No Iterations 3
time step continuity errors : sum local = 0.00120479, global = -3.76992e-05, cumulative = 0.000130109
ExecutionTime = 24.5223 s  ClockTime = 25 s

Time = 71s

DILUPBiCGStab:  Solving for Ux, Initial residual = 0.46137, Final residual = 0.033715, No Iterations 2
DILUPBiCGStab:  Solving for Uy, Initial residual = 0.398654, Final residual = 0.0294691, No Iterations 2
DILUPBiCGStab:  Solving for Uz, Initial residual = 0.293984, Final residual = 0.0161611, No Iterations 2
GAMG:  Solving for p, Initial residual = 0.44516, Final residual = 0.0348037, No Iterations 3
time step continuity errors : sum local = 0.0014959, global = 1.56057e-05, cumulative = 0.000145715
ExecutionTime = 24.861 s  ClockTime = 25 s

Time = 72s

DILUPBiCGStab:  Solving for Ux, Initial residual = 0.3081, Final residual = 0.0193053, No Iterations 2
DILUPBiCGStab:  Solving for Uy, Initial residual = 0.228325, Final residual = 0.016193, No Iterations 2
DILUPBiCGStab:  Solving for Uz, Initial residual = 0.290269, Final residual = 0.0136664, No Iterations 2
GAMG:  Solving for p, Initial residual = 0.433512, Final residual = 0.0286902, No Iterations 4
time step continuity errors : sum local = 0.000846652, global = 2.05053e-05, cumulative = 0.00016622
ExecutionTime = 25.2106 s  ClockTime = 25 s

Time = 73s

DILUPBiCGStab:  Solving for Ux, Initial residual = 0.460717, Final residual = 0.033882, No Iterations 2
DILUPBiCGStab:  Solving for Uy, Initial residual = 0.455372, Final residual = 0.0324029, No Iterations 2
DILUPBiCGStab:  Solving for Uz, Initial residual = 0.327996, Final residual = 0.0204993, No Iterations 2
GAMG:  Solving for p, Initial residual = 0.575536, Final residual = 0.0524526, No Iterations 3
time step continuity errors : sum local = 0.00122748, global = 1.29775e-05, cumulative = 0.000179198
ExecutionTime = 25.5491 s  ClockTime = 26 s

Time = 74s

DILUPBiCGStab:  Solving for Ux, Initial residual = 0.476086, Final residual = 0.0286507, No Iterations 2
DILUPBiCGStab:  Solving for Uy, Initial residual = 0.467772, Final residual = 0.0320218, No Iterations 2
DILUPBiCGStab:  Solving for Uz, Initial residual = 0.269497, Final residual = 0.0202135, No Iterations 2
GAMG:  Solving for p, Initial residual = 0.464965, Final residual = 0.0337189, No Iterations 3
time step continuity errors : sum local = 0.00134707, global = -7.96017e-06, cumulative = 0.000171238
ExecutionTime = 25.8866 s  ClockTime = 26 s

Time = 75s

DILUPBiCGStab:  Solving for Ux, Initial residual = 0.245433, Final residual = 0.00359846, No Iterations 3
DILUPBiCGStab:  Solving for Uy, Initial residual = 0.230865, Final residual = 0.0107827, No Iterations 2
DILUPBiCGStab:  Solving for Uz, Initial residual = 0.310502, Final residual = 0.0143259, No Iterations 2
GAMG:  Solving for p, Initial residual = 0.462511, Final residual = 0.0393801, No Iterations 4
time step continuity errors : sum local = 0.00117808, global = -2.25784e-05, cumulative = 0.000148659
ExecutionTime = 26.2585 s  ClockTime = 26 s

Time = 76s

DILUPBiCGStab:  Solving for Ux, Initial residual = 0.382288, Final residual = 0.0311117, No Iterations 2
DILUPBiCGStab:  Solving for Uy, Initial residual = 0.411761, Final residual = 0.0358097, No Iterations 2
DILUPBiCGStab:  Solving for Uz, Initial residual = 0.35998, Final residual = 0.0220058, No Iterations 2
GAMG:  Solving for p, Initial residual = 0.48905, Final residual = 0.0394536, No Iterations 3
time step continuity errors : sum local = 0.0010631, global = -9.93684e-06, cumulative = 0.000138722
ExecutionTime = 26.5963 s  ClockTime = 27 s

Time = 77s

DILUPBiCGStab:  Solving for Ux, Initial residual = 0.589567, Final residual = 0.0360112, No Iterations 2
DILUPBiCGStab:  Solving for Uy, Initial residual = 0.542142, Final residual = 0.0374065, No Iterations 2
DILUPBiCGStab:  Solving for Uz, Initial residual = 0.297649, Final residual = 0.0175621, No Iterations 2
GAMG:  Solving for p, Initial residual = 0.448754, Final residual = 0.0361894, No Iterations 3
time step continuity errors : sum local = 0.00167011, global = 2.57333e-05, cumulative = 0.000164456
ExecutionTime = 26.934 s  ClockTime = 27 s

Time = 78s

DILUPBiCGStab:  Solving for Ux, Initial residual = 0.35982, Final residual = 0.0272379, No Iterations 2
DILUPBiCGStab:  Solving for Uy, Initial residual = 0.260261, Final residual = 0.0169405, No Iterations 2
DILUPBiCGStab:  Solving for Uz, Initial residual = 0.301797, Final residual = 0.0132848, No Iterations 2
GAMG:  Solving for p, Initial residual = 0.420599, Final residual = 0.0415987, No Iterations 4
time step continuity errors : sum local = 0.00142276, global = -9.35135e-06, cumulative = 0.000155104
ExecutionTime = 27.2833 s  ClockTime = 28 s

Time = 79s

DILUPBiCGStab:  Solving for Ux, Initial residual = 0.379655, Final residual = 0.0285699, No Iterations 2
DILUPBiCGStab:  Solving for Uy, Initial residual = 0.340238, Final residual = 0.0283085, No Iterations 2
DILUPBiCGStab:  Solving for Uz, Initial residual = 0.362734, Final residual = 0.0162448, No Iterations 2
GAMG:  Solving for p, Initial residual = 0.461867, Final residual = 0.0382637, No Iterations 3
time step continuity errors : sum local = 0.00114637, global = 3.01292e-05, cumulative = 0.000185234
ExecutionTime = 27.6214 s  ClockTime = 28 s

Time = 80s

DILUPBiCGStab:  Solving for Ux, Initial residual = 0.571678, Final residual = 0.0402152, No Iterations 2
DILUPBiCGStab:  Solving for Uy, Initial residual = 0.505119, Final residual = 0.0374864, No Iterations 2
DILUPBiCGStab:  Solving for Uz, Initial residual = 0.301638, Final residual = 0.0192752, No Iterations 2
GAMG:  Solving for p, Initial residual = 0.42083, Final residual = 0.040446, No Iterations 2
time step continuity errors : sum local = 0.00218106, global = -5.4966e-05, cumulative = 0.000130268
ExecutionTime = 27.9488 s  ClockTime = 28 s

Time = 81s

DILUPBiCGStab:  Solving for Ux, Initial residual = 0.337103, Final residual = 0.0219097, No Iterations 2
DILUPBiCGStab:  Solving for Uy, Initial residual = 0.282808, Final residual = 0.0173341, No Iterations 2
DILUPBiCGStab:  Solving for Uz, Initial residual = 0.266657, Final residual = 0.0106842, No Iterations 2
GAMG:  Solving for p, Initial residual = 0.332088, Final residual = 0.0261416, No Iterations 4
time step continuity errors : sum local = 0.00156237, global = -1.56818e-06, cumulative = 0.000128699
ExecutionTime = 28.2991 s  ClockTime = 29 s

Time = 82s

DILUPBiCGStab:  Solving for Ux, Initial residual = 0.279113, Final residual = 0.0229344, No Iterations 2
DILUPBiCGStab:  Solving for Uy, Initial residual = 0.297254, Final residual = 0.0243417, No Iterations 2
DILUPBiCGStab:  Solving for Uz, Initial residual = 0.347166, Final residual = 0.0169811, No Iterations 2
GAMG:  Solving for p, Initial residual = 0.688512, Final residual = 0.05518, No Iterations 4
time step continuity errors : sum local = 0.00113903, global = -2.18434e-05, cumulative = 0.000106856
ExecutionTime = 28.6486 s  ClockTime = 29 s

Time = 83s

DILUPBiCGStab:  Solving for Ux, Initial residual = 0.521196, Final residual = 0.0368794, No Iterations 2
DILUPBiCGStab:  Solving for Uy, Initial residual = 0.510162, Final residual = 0.0417783, No Iterations 2
DILUPBiCGStab:  Solving for Uz, Initial residual = 0.334083, Final residual = 0.0225034, No Iterations 2
GAMG:  Solving for p, Initial residual = 0.441401, Final residual = 0.0369159, No Iterations 2
time step continuity errors : sum local = 0.00202163, global = 4.32151e-05, cumulative = 0.000150071
ExecutionTime = 28.9766 s  ClockTime = 29 s

Time = 84s

DILUPBiCGStab:  Solving for Ux, Initial residual = 0.417983, Final residual = 0.0291912, No Iterations 2
DILUPBiCGStab:  Solving for Uy, Initial residual = 0.318426, Final residual = 0.0198996, No Iterations 2
DILUPBiCGStab:  Solving for Uz, Initial residual = 0.281683, Final residual = 0.0166342, No Iterations 2
GAMG:  Solving for p, Initial residual = 0.433684, Final residual = 0.0328448, No Iterations 4
time step continuity errors : sum local = 0.0016025, global = 1.77556e-05, cumulative = 0.000167827
ExecutionTime = 29.3257 s  ClockTime = 30 s

Time = 85s

DILUPBiCGStab:  Solving for Ux, Initial residual = 0.289797, Final residual = 0.0249338, No Iterations 2
DILUPBiCGStab:  Solving for Uy, Initial residual = 0.25396, Final residual = 0.0216678, No Iterations 2
DILUPBiCGStab:  Solving for Uz, Initial residual = 0.351148, Final residual = 0.0171638, No Iterations 2
GAMG:  Solving for p, Initial residual = 0.708016, Final residual = 0.0515333, No Iterations 4
time step continuity errors : sum local = 0.00102005, global = 1.61312e-05, cumulative = 0.000183958
ExecutionTime = 29.6761 s  ClockTime = 30 s

Time = 86s

DILUPBiCGStab:  Solving for Ux, Initial residual = 0.549786, Final residual = 0.0371757, No Iterations 2
DILUPBiCGStab:  Solving for Uy, Initial residual = 0.518121, Final residual = 0.0365415, No Iterations 2
DILUPBiCGStab:  Solving for Uz, Initial residual = 0.345494, Final residual = 0.0219527, No Iterations 2
GAMG:  Solving for p, Initial residual = 0.413184, Final residual = 0.0327946, No Iterations 2
time step continuity errors : sum local = 0.00178994, global = -2.77411e-05, cumulative = 0.000156217
ExecutionTime = 30.0038 s  ClockTime = 30 s

Time = 87s

DILUPBiCGStab:  Solving for Ux, Initial residual = 0.39988, Final residual = 0.0255527, No Iterations 2
DILUPBiCGStab:  Solving for Uy, Initial residual = 0.367428, Final residual = 0.0231063, No Iterations 2
DILUPBiCGStab:  Solving for Uz, Initial residual = 0.267478, Final residual = 0.0169458, No Iterations 2
GAMG:  Solving for p, Initial residual = 0.405676, Final residual = 0.0395648, No Iterations 3
time step continuity errors : sum local = 0.00222702, global = -6.99225e-05, cumulative = 8.62943e-05
ExecutionTime = 30.3437 s  ClockTime = 31 s

Time = 88s

DILUPBiCGStab:  Solving for Ux, Initial residual = 0.228581, Final residual = 0.00917879, No Iterations 2
DILUPBiCGStab:  Solving for Uy, Initial residual = 0.21082, Final residual = 0.0141817, No Iterations 2
DILUPBiCGStab:  Solving for Uz, Initial residual = 0.315427, Final residual = 0.0151165, No Iterations 2
GAMG:  Solving for p, Initial residual = 0.529291, Final residual = 0.0454357, No Iterations 4
time step continuity errors : sum local = 0.00141199, global = -3.63112e-05, cumulative = 4.99831e-05
ExecutionTime = 30.7003 s  ClockTime = 31 s

Time = 89s

DILUPBiCGStab:  Solving for Ux, Initial residual = 0.475991, Final residual = 0.0469201, No Iterations 2
DILUPBiCGStab:  Solving for Uy, Initial residual = 0.474658, Final residual = 0.0368357, No Iterations 2
DILUPBiCGStab:  Solving for Uz, Initial residual = 0.380725, Final residual = 0.0359745, No Iterations 2
GAMG:  Solving for p, Initial residual = 0.456996, Final residual = 0.0354886, No Iterations 2
time step continuity errors : sum local = 0.0016199, global = -3.80807e-05, cumulative = 1.19024e-05
ExecutionTime = 31.0307 s  ClockTime = 31 s

Time = 90s

DILUPBiCGStab:  Solving for Ux, Initial residual = 0.506713, Final residual = 0.0342, No Iterations 2
DILUPBiCGStab:  Solving for Uy, Initial residual = 0.478664, Final residual = 0.0427218, No Iterations 2
DILUPBiCGStab:  Solving for Uz, Initial residual = 0.299687, Final residual = 0.0207547, No Iterations 2
GAMG:  Solving for p, Initial residual = 0.470845, Final residual = 0.0410001, No Iterations 3
time step continuity errors : sum local = 0.00233789, global = 4.85066e-05, cumulative = 6.0409e-05
ExecutionTime = 31.3672 s  ClockTime = 32 s

Time = 91s

DILUPBiCGStab:  Solving for Ux, Initial residual = 0.278663, Final residual = 0.015658, No Iterations 2
DILUPBiCGStab:  Solving for Uy, Initial residual = 0.236089, Final residual = 0.0121355, No Iterations 2
DILUPBiCGStab:  Solving for Uz, Initial residual = 0.337846, Final residual = 0.017809, No Iterations 2
GAMG:  Solving for p, Initial residual = 0.484932, Final residual = 0.0403482, No Iterations 4
time step continuity errors : sum local = 0.00147954, global = 1.12478e-05, cumulative = 7.16568e-05
ExecutionTime = 31.7489 s  ClockTime = 32 s

Time = 92s

DILUPBiCGStab:  Solving for Ux, Initial residual = 0.458597, Final residual = 0.0338496, No Iterations 2
DILUPBiCGStab:  Solving for Uy, Initial residual = 0.429579, Final residual = 0.0355745, No Iterations 2
DILUPBiCGStab:  Solving for Uz, Initial residual = 0.383722, Final residual = 0.0196681, No Iterations 2
GAMG:  Solving for p, Initial residual = 0.503292, Final residual = 0.0350908, No Iterations 3
time step continuity errors : sum local = 0.00133363, global = 2.23391e-05, cumulative = 9.39959e-05
ExecutionTime = 32.0877 s  ClockTime = 32 s

Time = 93s

DILUPBiCGStab:  Solving for Ux, Initial residual = 0.570679, Final residual = 0.0399044, No Iterations 2
DILUPBiCGStab:  Solving for Uy, Initial residual = 0.544344, Final residual = 0.0424954, No Iterations 2
DILUPBiCGStab:  Solving for Uz, Initial residual = 0.342618, Final residual = 0.0262266, No Iterations 2
GAMG:  Solving for p, Initial residual = 0.475537, Final residual = 0.0323597, No Iterations 3
time step continuity errors : sum local = 0.00207941, global = -7.52829e-06, cumulative = 8.64676e-05
ExecutionTime = 32.4236 s  ClockTime = 33 s

Time = 94s

DILUPBiCGStab:  Solving for Ux, Initial residual = 0.295516, Final residual = 0.0253774, No Iterations 2
DILUPBiCGStab:  Solving for Uy, Initial residual = 0.271988, Final residual = 0.013283, No Iterations 2
DILUPBiCGStab:  Solving for Uz, Initial residual = 0.351671, Final residual = 0.00288927, No Iterations 3
GAMG:  Solving for p, Initial residual = 0.437627, Final residual = 0.0272334, No Iterations 4
time step continuity errors : sum local = 0.00147205, global = -1.71907e-05, cumulative = 6.9277e-05
ExecutionTime = 32.8066 s  ClockTime = 33 s

Time = 95s

DILUPBiCGStab:  Solving for Ux, Initial residual = 0.380506, Final residual = 0.0281308, No Iterations 2
DILUPBiCGStab:  Solving for Uy, Initial residual = 0.378133, Final residual = 0.0321828, No Iterations 2
DILUPBiCGStab:  Solving for Uz, Initial residual = 0.394693, Final residual = 0.00453016, No Iterations 3
GAMG:  Solving for p, Initial residual = 0.712129, Final residual = 0.0540286, No Iterations 3
time step continuity errors : sum local = 0.00157658, global = -3.70717e-05, cumulative = 3.22053e-05
ExecutionTime = 33.1586 s  ClockTime = 33 s

Time = 96s

DILUPBiCGStab:  Solving for Ux, Initial residual = 0.533157, Final residual = 0.0394957, No Iterations 2
DILUPBiCGStab:  Solving for Uy, Initial residual = 0.563461, Final residual = 0.0424547, No Iterations 2
DILUPBiCGStab:  Solving for Uz, Initial residual = 0.38872, Final residual = 0.0353064, No Iterations 2
GAMG:  Solving for p, Initial residual = 0.523827, Final residual = 0.0307095, No Iterations 3
time step continuity errors : sum local = 0.00191566, global = -6.1309e-05, cumulative = -2.91037e-05
ExecutionTime = 33.4958 s  ClockTime = 34 s

Time = 97s

DILUPBiCGStab:  Solving for Ux, Initial residual = 0.32095, Final residual = 0.0159551, No Iterations 2
DILUPBiCGStab:  Solving for Uy, Initial residual = 0.297365, Final residual = 0.0234294, No Iterations 2
DILUPBiCGStab:  Solving for Uz, Initial residual = 0.354334, Final residual = 0.0301815, No Iterations 2
GAMG:  Solving for p, Initial residual = 0.509007, Final residual = 0.0266464, No Iterations 4
time step continuity errors : sum local = 0.00132964, global = 2.49834e-07, cumulative = -2.88539e-05
ExecutionTime = 33.8537 s  ClockTime = 34 s

Time = 98s

DILUPBiCGStab:  Solving for Ux, Initial residual = 0.300671, Final residual = 0.0254439, No Iterations 2
DILUPBiCGStab:  Solving for Uy, Initial residual = 0.299909, Final residual = 0.00903076, No Iterations 2
DILUPBiCGStab:  Solving for Uz, Initial residual = 0.372757, Final residual = 0.0184483, No Iterations 2
GAMG:  Solving for p, Initial residual = 0.72221, Final residual = 0.0621731, No Iterations 3
time step continuity errors : sum local = 0.00175598, global = 5.24034e-05, cumulative = 2.35496e-05
ExecutionTime = 34.199 s  ClockTime = 34 s

Time = 99s

DILUPBiCGStab:  Solving for Ux, Initial residual = 0.455092, Final residual = 0.0351109, No Iterations 2
DILUPBiCGStab:  Solving for Uy, Initial residual = 0.499349, Final residual = 0.0370041, No Iterations 2
DILUPBiCGStab:  Solving for Uz, Initial residual = 0.359184, Final residual = 0.0244227, No Iterations 2
GAMG:  Solving for p, Initial residual = 0.526337, Final residual = 0.0404966, No Iterations 3
time step continuity errors : sum local = 0.0021492, global = 6.47765e-05, cumulative = 8.83261e-05
ExecutionTime = 34.5372 s  ClockTime = 35 s

Time = 100s

DILUPBiCGStab:  Solving for Ux, Initial residual = 0.349166, Final residual = 0.0284161, No Iterations 2
DILUPBiCGStab:  Solving for Uy, Initial residual = 0.315399, Final residual = 0.0252494, No Iterations 2
DILUPBiCGStab:  Solving for Uz, Initial residual = 0.302447, Final residual = 0.0232089, No Iterations 2
GAMG:  Solving for p, Initial residual = 0.369809, Final residual = 0.0358769, No Iterations 3
time step continuity errors : sum local = 0.00289714, global = 3.59986e-05, cumulative = 0.000124325
ExecutionTime = 34.8869 s  ClockTime = 35 s

Time = 101s

DILUPBiCGStab:  Solving for Ux, Initial residual = 0.276766, Final residual = 0.0199486, No Iterations 2
DILUPBiCGStab:  Solving for Uy, Initial residual = 0.222605, Final residual = 0.0151653, No Iterations 2
DILUPBiCGStab:  Solving for Uz, Initial residual = 0.3157, Final residual = 0.0149344, No Iterations 2
GAMG:  Solving for p, Initial residual = 0.329477, Final residual = 0.0252082, No Iterations 3
time step continuity errors : sum local = 0.0021289, global = -5.71402e-05, cumulative = 6.71845e-05
ExecutionTime = 35.2254 s  ClockTime = 35 s

Time = 102s

DILUPBiCGStab:  Solving for Ux, Initial residual = 0.39978, Final residual = 0.0288863, No Iterations 2
DILUPBiCGStab:  Solving for Uy, Initial residual = 0.446862, Final residual = 0.0312097, No Iterations 2
DILUPBiCGStab:  Solving for Uz, Initial residual = 0.319202, Final residual = 0.0195427, No Iterations 2
GAMG:  Solving for p, Initial residual = 0.562407, Final residual = 0.0417373, No Iterations 4
time step continuity errors : sum local = 0.00231963, global = -3.40155e-05, cumulative = 3.3169e-05
ExecutionTime = 35.5749 s  ClockTime = 36 s

Time = 103s

DILUPBiCGStab:  Solving for Ux, Initial residual = 0.29395, Final residual = 0.0196903, No Iterations 2
DILUPBiCGStab:  Solving for Uy, Initial residual = 0.394971, Final residual = 0.0293627, No Iterations 2
DILUPBiCGStab:  Solving for Uz, Initial residual = 0.278124, Final residual = 0.0195569, No Iterations 2
GAMG:  Solving for p, Initial residual = 0.411463, Final residual = 0.0303252, No Iterations 4
time step continuity errors : sum local = 0.00242837, global = -3.33923e-05, cumulative = -2.23235e-07
ExecutionTime = 35.9242 s  ClockTime = 36 s

Time = 104s

DILUPBiCGStab:  Solving for Ux, Initial residual = 0.215129, Final residual = 0.01248, No Iterations 2
DILUPBiCGStab:  Solving for Uy, Initial residual = 0.234843, Final residual = 0.002364, No Iterations 3
DILUPBiCGStab:  Solving for Uz, Initial residual = 0.321889, Final residual = 0.0147626, No Iterations 2
GAMG:  Solving for p, Initial residual = 0.389795, Final residual = 0.0328755, No Iterations 3
time step continuity errors : sum local = 0.00252181, global = -4.179e-05, cumulative = -4.20132e-05
ExecutionTime = 36.2845 s  ClockTime = 37 s

Time = 105s

DILUPBiCGStab:  Solving for Ux, Initial residual = 0.337938, Final residual = 0.0259034, No Iterations 2
DILUPBiCGStab:  Solving for Uy, Initial residual = 0.388273, Final residual = 0.0357193, No Iterations 2
DILUPBiCGStab:  Solving for Uz, Initial residual = 0.322598, Final residual = 0.0235095, No Iterations 2
GAMG:  Solving for p, Initial residual = 0.46026, Final residual = 0.0369892, No Iterations 3
time step continuity errors : sum local = 0.00238982, global = 4.63e-05, cumulative = 4.28677e-06
ExecutionTime = 36.6218 s  ClockTime = 37 s

Time = 106s

DILUPBiCGStab:  Solving for Ux, Initial residual = 0.35707, Final residual = 0.023858, No Iterations 2
DILUPBiCGStab:  Solving for Uy, Initial residual = 0.393756, Final residual = 0.0274952, No Iterations 2
DILUPBiCGStab:  Solving for Uz, Initial residual = 0.259766, Final residual = 0.0199124, No Iterations 2
GAMG:  Solving for p, Initial residual = 0.695067, Final residual = 0.0616031, No Iterations 3
time step continuity errors : sum local = 0.00268954, global = 7.14407e-05, cumulative = 7.57275e-05
ExecutionTime = 36.9599 s  ClockTime = 37 s

Time = 107s

DILUPBiCGStab:  Solving for Ux, Initial residual = 0.240415, Final residual = 0.0147007, No Iterations 2
DILUPBiCGStab:  Solving for Uy, Initial residual = 0.216029, Final residual = 0.0132547, No Iterations 2
DILUPBiCGStab:  Solving for Uz, Initial residual = 0.269834, Final residual = 0.0138114, No Iterations 2
GAMG:  Solving for p, Initial residual = 0.483025, Final residual = 0.044896, No Iterations 3
time step continuity errors : sum local = 0.00241144, global = 7.88413e-05, cumulative = 0.000154569
ExecutionTime = 37.2965 s  ClockTime = 38 s

Time = 108s

DILUPBiCGStab:  Solving for Ux, Initial residual = 0.308614, Final residual = 0.0244856, No Iterations 2
DILUPBiCGStab:  Solving for Uy, Initial residual = 0.294887, Final residual = 0.0275005, No Iterations 2
DILUPBiCGStab:  Solving for Uz, Initial residual = 0.29956, Final residual = 0.0172254, No Iterations 2
GAMG:  Solving for p, Initial residual = 0.51058, Final residual = 0.0295375, No Iterations 3
time step continuity errors : sum local = 0.00148104, global = -3.99628e-06, cumulative = 0.000150573
ExecutionTime = 37.6332 s  ClockTime = 38 s

Time = 109s

DILUPBiCGStab:  Solving for Ux, Initial residual = 0.33394, Final residual = 0.0238843, No Iterations 2
DILUPBiCGStab:  Solving for Uy, Initial residual = 0.401481, Final residual = 0.0283867, No Iterations 2
DILUPBiCGStab:  Solving for Uz, Initial residual = 0.267361, Final residual = 0.019418, No Iterations 2
GAMG:  Solving for p, Initial residual = 0.62295, Final residual = 0.0437021, No Iterations 3
time step continuity errors : sum local = 0.00217586, global = -8.61744e-05, cumulative = 6.43982e-05
ExecutionTime = 37.9706 s  ClockTime = 38 s

Time = 110s

DILUPBiCGStab:  Solving for Ux, Initial residual = 0.209488, Final residual = 0.0137566, No Iterations 2
DILUPBiCGStab:  Solving for Uy, Initial residual = 0.273692, Final residual = 0.0168496, No Iterations 2
DILUPBiCGStab:  Solving for Uz, Initial residual = 0.270105, Final residual = 0.0170452, No Iterations 2
GAMG:  Solving for p, Initial residual = 0.689727, Final residual = 0.0485579, No Iterations 4
time step continuity errors : sum local = 0.00185935, global = -1.86413e-05, cumulative = 4.57569e-05
ExecutionTime = 38.3194 s  ClockTime = 39 s

Time = 111s

DILUPBiCGStab:  Solving for Ux, Initial residual = 0.248097, Final residual = 0.0187791, No Iterations 2
DILUPBiCGStab:  Solving for Uy, Initial residual = 0.288879, Final residual = 0.0217147, No Iterations 2
DILUPBiCGStab:  Solving for Uz, Initial residual = 0.308913, Final residual = 0.0203507, No Iterations 2
GAMG:  Solving for p, Initial residual = 0.529865, Final residual = 0.040564, No Iterations 3
time step continuity errors : sum local = 0.00177567, global = -4.44044e-05, cumulative = 1.35251e-06
ExecutionTime = 38.6573 s  ClockTime = 39 s

Time = 112s

DILUPBiCGStab:  Solving for Ux, Initial residual = 0.356929, Final residual = 0.0233778, No Iterations 2
DILUPBiCGStab:  Solving for Uy, Initial residual = 0.394385, Final residual = 0.0315296, No Iterations 2
DILUPBiCGStab:  Solving for Uz, Initial residual = 0.258597, Final residual = 0.0183809, No Iterations 2
GAMG:  Solving for p, Initial residual = 0.560293, Final residual = 0.0333807, No Iterations 3
time step continuity errors : sum local = 0.00173306, global = 3.59247e-05, cumulative = 3.72772e-05
ExecutionTime = 38.9949 s  ClockTime = 39 s

Time = 113s

DILUPBiCGStab:  Solving for Ux, Initial residual = 0.260428, Final residual = 0.0188469, No Iterations 2
DILUPBiCGStab:  Solving for Uy, Initial residual = 0.272716, Final residual = 0.0183859, No Iterations 2
DILUPBiCGStab:  Solving for Uz, Initial residual = 0.228192, Final residual = 0.0142373, No Iterations 2
GAMG:  Solving for p, Initial residual = 0.659677, Final residual = 0.0454575, No Iterations 4
time step continuity errors : sum local = 0.00174736, global = -1.0301e-05, cumulative = 2.69761e-05
ExecutionTime = 39.3443 s  ClockTime = 40 s

Time = 114s

DILUPBiCGStab:  Solving for Ux, Initial residual = 0.236567, Final residual = 0.0149427, No Iterations 2
DILUPBiCGStab:  Solving for Uy, Initial residual = 0.242383, Final residual = 0.0196305, No Iterations 2
DILUPBiCGStab:  Solving for Uz, Initial residual = 0.279314, Final residual = 0.0164974, No Iterations 2
GAMG:  Solving for p, Initial residual = 0.468901, Final residual = 0.0400296, No Iterations 3
time step continuity errors : sum local = 0.00193148, global = 8.09665e-05, cumulative = 0.000107943
ExecutionTime = 39.6816 s  ClockTime = 40 s

Time = 115s

DILUPBiCGStab:  Solving for Ux, Initial residual = 0.318434, Final residual = 0.0209105, No Iterations 2
DILUPBiCGStab:  Solving for Uy, Initial residual = 0.368705, Final residual = 0.0260329, No Iterations 2
DILUPBiCGStab:  Solving for Uz, Initial residual = 0.245409, Final residual = 0.0162563, No Iterations 2
GAMG:  Solving for p, Initial residual = 0.4596, Final residual = 0.0408831, No Iterations 2
time step continuity errors : sum local = 0.00244623, global = 9.2687e-06, cumulative = 0.000117211
ExecutionTime = 40.0068 s  ClockTime = 40 s

Time = 116s

DILUPBiCGStab:  Solving for Ux, Initial residual = 0.227696, Final residual = 0.0150046, No Iterations 2
DILUPBiCGStab:  Solving for Uy, Initial residual = 0.300526, Final residual = 0.0215629, No Iterations 2
DILUPBiCGStab:  Solving for Uz, Initial residual = 0.205143, Final residual = 0.0134038, No Iterations 2
GAMG:  Solving for p, Initial residual = 0.403481, Final residual = 0.0327604, No Iterations 3
time step continuity errors : sum local = 0.00231949, global = -6.89164e-05, cumulative = 4.82949e-05
ExecutionTime = 40.3446 s  ClockTime = 41 s

Time = 117s

DILUPBiCGStab:  Solving for Ux, Initial residual = 0.168738, Final residual = 0.014856, No Iterations 2
DILUPBiCGStab:  Solving for Uy, Initial residual = 0.22976, Final residual = 0.0145781, No Iterations 2
DILUPBiCGStab:  Solving for Uz, Initial residual = 0.254252, Final residual = 0.0192968, No Iterations 2
GAMG:  Solving for p, Initial residual = 0.349737, Final residual = 0.0242302, No Iterations 4
time step continuity errors : sum local = 0.00162816, global = -1.69941e-05, cumulative = 3.13007e-05
ExecutionTime = 40.6931 s  ClockTime = 41 s

Time = 118s

DILUPBiCGStab:  Solving for Ux, Initial residual = 0.249929, Final residual = 0.019424, No Iterations 2
DILUPBiCGStab:  Solving for Uy, Initial residual = 0.374141, Final residual = 0.0334987, No Iterations 2
DILUPBiCGStab:  Solving for Uz, Initial residual = 0.25822, Final residual = 0.0169031, No Iterations 2
GAMG:  Solving for p, Initial residual = 0.67176, Final residual = 0.0581746, No Iterations 3
time step continuity errors : sum local = 0.00212501, global = -5.13183e-05, cumulative = -2.00175e-05
ExecutionTime = 41.0302 s  ClockTime = 41 s

Time = 119s

DILUPBiCGStab:  Solving for Ux, Initial residual = 0.250943, Final residual = 0.0157076, No Iterations 2
DILUPBiCGStab:  Solving for Uy, Initial residual = 0.346911, Final residual = 0.0278174, No Iterations 2
DILUPBiCGStab:  Solving for Uz, Initial residual = 0.201631, Final residual = 0.014363, No Iterations 2
GAMG:  Solving for p, Initial residual = 0.599704, Final residual = 0.0424046, No Iterations 3
time step continuity errors : sum local = 0.00222672, global = 2.96157e-05, cumulative = 9.59821e-06
ExecutionTime = 41.3673 s  ClockTime = 42 s

Time = 120s

DILUPBiCGStab:  Solving for Ux, Initial residual = 0.1898, Final residual = 0.0113631, No Iterations 2
DILUPBiCGStab:  Solving for Uy, Initial residual = 0.225627, Final residual = 0.0142743, No Iterations 2
DILUPBiCGStab:  Solving for Uz, Initial residual = 0.228018, Final residual = 0.0126718, No Iterations 2
GAMG:  Solving for p, Initial residual = 0.559914, Final residual = 0.0387831, No Iterations 4
time step continuity errors : sum local = 0.00168824, global = -2.57154e-05, cumulative = -1.61172e-05
ExecutionTime = 41.7167 s  ClockTime = 42 s

Time = 121s

DILUPBiCGStab:  Solving for Ux, Initial residual = 0.264316, Final residual = 0.0171706, No Iterations 2
DILUPBiCGStab:  Solving for Uy, Initial residual = 0.327517, Final residual = 0.0234965, No Iterations 2
DILUPBiCGStab:  Solving for Uz, Initial residual = 0.265875, Final residual = 0.0113125, No Iterations 2
GAMG:  Solving for p, Initial residual = 0.550807, Final residual = 0.0441292, No Iterations 3
time step continuity errors : sum local = 0.00171583, global = 3.10904e-05, cumulative = 1.49732e-05
ExecutionTime = 42.0615 s  ClockTime = 42 s

Time = 122s

DILUPBiCGStab:  Solving for Ux, Initial residual = 0.273257, Final residual = 0.0171949, No Iterations 2
DILUPBiCGStab:  Solving for Uy, Initial residual = 0.394345, Final residual = 0.030567, No Iterations 2
DILUPBiCGStab:  Solving for Uz, Initial residual = 0.225031, Final residual = 0.0167578, No Iterations 2
GAMG:  Solving for p, Initial residual = 0.467421, Final residual = 0.0230222, No Iterations 3
time step continuity errors : sum local = 0.00146476, global = 5.81513e-06, cumulative = 2.07884e-05
ExecutionTime = 42.3987 s  ClockTime = 43 s

Time = 123s

DILUPBiCGStab:  Solving for Ux, Initial residual = 0.161505, Final residual = 0.0106296, No Iterations 2
DILUPBiCGStab:  Solving for Uy, Initial residual = 0.239501, Final residual = 0.0152168, No Iterations 2
DILUPBiCGStab:  Solving for Uz, Initial residual = 0.205038, Final residual = 0.0117825, No Iterations 2
GAMG:  Solving for p, Initial residual = 0.38813, Final residual = 0.0385813, No Iterations 3
time step continuity errors : sum local = 0.00269274, global = -0.000203295, cumulative = -0.000182507
ExecutionTime = 42.7356 s  ClockTime = 43 s

Time = 124s

DILUPBiCGStab:  Solving for Ux, Initial residual = 0.171048, Final residual = 0.0135756, No Iterations 2
DILUPBiCGStab:  Solving for Uy, Initial residual = 0.271222, Final residual = 0.0214932, No Iterations 2
DILUPBiCGStab:  Solving for Uz, Initial residual = 0.243829, Final residual = 0.0180417, No Iterations 2
GAMG:  Solving for p, Initial residual = 0.504903, Final residual = 0.048857, No Iterations 3
time step continuity errors : sum local = 0.0021404, global = -0.00043415, cumulative = -0.000616656
ExecutionTime = 43.0732 s  ClockTime = 43 s

Time = 125s

DILUPBiCGStab:  Solving for Ux, Initial residual = 0.238931, Final residual = 0.0158811, No Iterations 2
DILUPBiCGStab:  Solving for Uy, Initial residual = 0.362782, Final residual = 0.0255871, No Iterations 2
DILUPBiCGStab:  Solving for Uz, Initial residual = 0.242499, Final residual = 0.0166901, No Iterations 2
GAMG:  Solving for p, Initial residual = 0.678547, Final residual = 0.0473111, No Iterations 3
time step continuity errors : sum local = 0.00180577, global = -0.000369373, cumulative = -0.00098603
ExecutionTime = 43.4098 s  ClockTime = 44 s

Time = 126s

DILUPBiCGStab:  Solving for Ux, Initial residual = 0.210029, Final residual = 0.0155876, No Iterations 2
DILUPBiCGStab:  Solving for Uy, Initial residual = 0.249747, Final residual = 0.0202607, No Iterations 2
DILUPBiCGStab:  Solving for Uz, Initial residual = 0.181191, Final residual = 0.0133932, No Iterations 2
GAMG:  Solving for p, Initial residual = 0.687591, Final residual = 0.0528795, No Iterations 3
time step continuity errors : sum local = 0.00201298, global = 0.000287818, cumulative = -0.000698212
ExecutionTime = 43.7473 s  ClockTime = 44 s

Time = 127s

DILUPBiCGStab:  Solving for Ux, Initial residual = 0.190699, Final residual = 0.0124016, No Iterations 2
DILUPBiCGStab:  Solving for Uy, Initial residual = 0.211289, Final residual = 0.0156236, No Iterations 2
DILUPBiCGStab:  Solving for Uz, Initial residual = 0.188452, Final residual = 0.0122284, No Iterations 2
GAMG:  Solving for p, Initial residual = 0.428324, Final residual = 0.031889, No Iterations 3
time step continuity errors : sum local = 0.00177749, global = 5.26496e-05, cumulative = -0.000645563
ExecutionTime = 44.0843 s  ClockTime = 44 s

Time = 128s

DILUPBiCGStab:  Solving for Ux, Initial residual = 0.22804, Final residual = 0.0193393, No Iterations 2
DILUPBiCGStab:  Solving for Uy, Initial residual = 0.359608, Final residual = 0.0106599, No Iterations 2
DILUPBiCGStab:  Solving for Uz, Initial residual = 0.214983, Final residual = 0.0153877, No Iterations 2
GAMG:  Solving for p, Initial residual = 0.407761, Final residual = 0.0349475, No Iterations 3
time step continuity errors : sum local = 0.00205039, global = 8.77842e-05, cumulative = -0.000557778
ExecutionTime = 44.4288 s  ClockTime = 45 s

Time = 129s

DILUPBiCGStab:  Solving for Ux, Initial residual = 0.175144, Final residual = 0.0127835, No Iterations 2
DILUPBiCGStab:  Solving for Uy, Initial residual = 0.290237, Final residual = 0.0204254, No Iterations 2
DILUPBiCGStab:  Solving for Uz, Initial residual = 0.166697, Final residual = 0.0126053, No Iterations 2
GAMG:  Solving for p, Initial residual = 0.595711, Final residual = 0.052282, No Iterations 3
time step continuity errors : sum local = 0.00210346, global = -0.000144758, cumulative = -0.000702537
ExecutionTime = 44.7665 s  ClockTime = 45 s

Time = 130s

DILUPBiCGStab:  Solving for Ux, Initial residual = 0.1391, Final residual = 0.0100872, No Iterations 2
DILUPBiCGStab:  Solving for Uy, Initial residual = 0.199651, Final residual = 0.0130021, No Iterations 2
DILUPBiCGStab:  Solving for Uz, Initial residual = 0.165422, Final residual = 0.0106387, No Iterations 2
GAMG:  Solving for p, Initial residual = 0.535893, Final residual = 0.0433965, No Iterations 3
time step continuity errors : sum local = 0.00175386, global = -0.00028663, cumulative = -0.000989167
ExecutionTime = 45.1037 s  ClockTime = 45 s

Time = 131s

DILUPBiCGStab:  Solving for Ux, Initial residual = 0.192867, Final residual = 0.0137256, No Iterations 2
DILUPBiCGStab:  Solving for Uy, Initial residual = 0.300846, Final residual = 0.0235094, No Iterations 2
DILUPBiCGStab:  Solving for Uz, Initial residual = 0.18459, Final residual = 0.0136397, No Iterations 2
GAMG:  Solving for p, Initial residual = 0.430343, Final residual = 0.0289799, No Iterations 3
time step continuity errors : sum local = 0.00146787, global = -0.000152569, cumulative = -0.00114174
ExecutionTime = 45.4417 s  ClockTime = 46 s

Time = 132s

DILUPBiCGStab:  Solving for Ux, Initial residual = 0.189836, Final residual = 0.0124092, No Iterations 2
DILUPBiCGStab:  Solving for Uy, Initial residual = 0.272881, Final residual = 0.0185046, No Iterations 2
DILUPBiCGStab:  Solving for Uz, Initial residual = 0.150801, Final residual = 0.011146, No Iterations 2
GAMG:  Solving for p, Initial residual = 0.417309, Final residual = 0.0361633, No Iterations 3
time step continuity errors : sum local = 0.00189678, global = 1.51384e-06, cumulative = -0.00114022
ExecutionTime = 45.7795 s  ClockTime = 46 s

Time = 133s

DILUPBiCGStab:  Solving for Ux, Initial residual = 0.140142, Final residual = 0.00961518, No Iterations 2
DILUPBiCGStab:  Solving for Uy, Initial residual = 0.171195, Final residual = 0.0119187, No Iterations 2
DILUPBiCGStab:  Solving for Uz, Initial residual = 0.140581, Final residual = 0.00902179, No Iterations 2
GAMG:  Solving for p, Initial residual = 0.5553, Final residual = 0.0241263, No Iterations 4
time step continuity errors : sum local = 0.000826749, global = -0.000183715, cumulative = -0.00132394
ExecutionTime = 46.1296 s  ClockTime = 46 s

Time = 134s

DILUPBiCGStab:  Solving for Ux, Initial residual = 0.172965, Final residual = 0.0124394, No Iterations 2
DILUPBiCGStab:  Solving for Uy, Initial residual = 0.265469, Final residual = 0.0201671, No Iterations 2
DILUPBiCGStab:  Solving for Uz, Initial residual = 0.160318, Final residual = 0.0116494, No Iterations 2
GAMG:  Solving for p, Initial residual = 0.468637, Final residual = 0.044269, No Iterations 2
time step continuity errors : sum local = 0.00193845, global = -9.39813e-05, cumulative = -0.00141792
ExecutionTime = 46.4556 s  ClockTime = 47 s

Time = 135s

DILUPBiCGStab:  Solving for Ux, Initial residual = 0.16118, Final residual = 0.0100419, No Iterations 2
DILUPBiCGStab:  Solving for Uy, Initial residual = 0.262261, Final residual = 0.0174585, No Iterations 2
DILUPBiCGStab:  Solving for Uz, Initial residual = 0.134264, Final residual = 0.00949789, No Iterations 2
GAMG:  Solving for p, Initial residual = 0.454082, Final residual = 0.032397, No Iterations 3
time step continuity errors : sum local = 0.00155592, global = 0.000378124, cumulative = -0.00103979
ExecutionTime = 46.7938 s  ClockTime = 47 s

Time = 136s

DILUPBiCGStab:  Solving for Ux, Initial residual = 0.123381, Final residual = 0.00783808, No Iterations 2
DILUPBiCGStab:  Solving for Uy, Initial residual = 0.173346, Final residual = 0.0118189, No Iterations 2
DILUPBiCGStab:  Solving for Uz, Initial residual = 0.126447, Final residual = 0.00807758, No Iterations 2
GAMG:  Solving for p, Initial residual = 0.461688, Final residual = 0.0435968, No Iterations 3
time step continuity errors : sum local = 0.00172047, global = 0.000104131, cumulative = -0.000935664
ExecutionTime = 47.1315 s  ClockTime = 47 s

Time = 137s

DILUPBiCGStab:  Solving for Ux, Initial residual = 0.141066, Final residual = 0.00602308, No Iterations 2
DILUPBiCGStab:  Solving for Uy, Initial residual = 0.233247, Final residual = 0.0193233, No Iterations 2
DILUPBiCGStab:  Solving for Uz, Initial residual = 0.143072, Final residual = 0.0100044, No Iterations 2
GAMG:  Solving for p, Initial residual = 0.557055, Final residual = 0.0355274, No Iterations 3
time step continuity errors : sum local = 0.00111936, global = -3.80764e-05, cumulative = -0.00097374
ExecutionTime = 47.4757 s  ClockTime = 48 s

Time = 138s

DILUPBiCGStab:  Solving for Ux, Initial residual = 0.169751, Final residual = 0.011156, No Iterations 2
DILUPBiCGStab:  Solving for Uy, Initial residual = 0.238591, Final residual = 0.0161139, No Iterations 2
DILUPBiCGStab:  Solving for Uz, Initial residual = 0.127649, Final residual = 0.0092213, No Iterations 2
GAMG:  Solving for p, Initial residual = 0.457647, Final residual = 0.0261824, No Iterations 3
time step continuity errors : sum local = 0.00111104, global = -0.000239769, cumulative = -0.00121351
[...]
GAMG:  Solving for p, Initial residual = 0.223913, Final residual = 0.0118411, No Iterations 2
time step continuity errors : sum local = 0.000391564, global = 1.80897e-05, cumulative = -0.00122765
ExecutionTime = 155.042 s  ClockTime = 155 s

Time = 467s

DILUPBiCGStab:  Solving for Ux, Initial residual = 0.0191164, Final residual = 0.00145822, No Iterations 2
DILUPBiCGStab:  Solving for Uy, Initial residual = 0.0199461, Final residual = 0.0012669, No Iterations 2
DILUPBiCGStab:  Solving for Uz, Initial residual = 0.0154591, Final residual = 0.0010972, No Iterations 2
GAMG:  Solving for p, Initial residual = 0.227307, Final residual = 0.00987617, No Iterations 2
time step continuity errors : sum local = 0.000321358, global = 2.48312e-06, cumulative = -0.00122516
ExecutionTime = 155.37 s  ClockTime = 156 s

Time = 468s

DILUPBiCGStab:  Solving for Ux, Initial residual = 0.0188597, Final residual = 0.00138592, No Iterations 2
DILUPBiCGStab:  Solving for Uy, Initial residual = 0.0191848, Final residual = 0.0012228, No Iterations 2
DILUPBiCGStab:  Solving for Uz, Initial residual = 0.0151008, Final residual = 0.00104581, No Iterations 2
GAMG:  Solving for p, Initial residual = 0.222201, Final residual = 0.010267, No Iterations 2
time step continuity errors : sum local = 0.000334523, global = 9.57763e-06, cumulative = -0.00121558
ExecutionTime = 155.695 s  ClockTime = 156 s

Time = 469s

DILUPBiCGStab:  Solving for Ux, Initial residual = 0.0195096, Final residual = 0.00135743, No Iterations 2
DILUPBiCGStab:  Solving for Uy, Initial residual = 0.0187177, Final residual = 0.00123595, No Iterations 2
DILUPBiCGStab:  Solving for Uz, Initial residual = 0.0149526, Final residual = 0.00105312, No Iterations 2
GAMG:  Solving for p, Initial residual = 0.215991, Final residual = 0.0134659, No Iterations 2
time step continuity errors : sum local = 0.000442881, global = -5.14955e-06, cumulative = -0.00122073
ExecutionTime = 156.022 s  ClockTime = 156 s

Time = 470s

DILUPBiCGStab:  Solving for Ux, Initial residual = 0.0221173, Final residual = 0.00145652, No Iterations 2
DILUPBiCGStab:  Solving for Uy, Initial residual = 0.018474, Final residual = 0.00120935, No Iterations 2
DILUPBiCGStab:  Solving for Uz, Initial residual = 0.0148573, Final residual = 0.00105001, No Iterations 2
GAMG:  Solving for p, Initial residual = 0.209521, Final residual = 0.0131507, No Iterations 2
time step continuity errors : sum local = 0.000442912, global = -1.70725e-05, cumulative = -0.00123781
ExecutionTime = 156.348 s  ClockTime = 157 s

Time = 471s

DILUPBiCGStab:  Solving for Ux, Initial residual = 0.0252381, Final residual = 0.00160217, No Iterations 2
DILUPBiCGStab:  Solving for Uy, Initial residual = 0.0182374, Final residual = 0.00123077, No Iterations 2
DILUPBiCGStab:  Solving for Uz, Initial residual = 0.0146438, Final residual = 0.0010533, No Iterations 2
GAMG:  Solving for p, Initial residual = 0.205046, Final residual = 0.00926747, No Iterations 2
time step continuity errors : sum local = 0.000321283, global = -3.76579e-06, cumulative = -0.00124157
ExecutionTime = 156.675 s  ClockTime = 157 s

Time = 472s

DILUPBiCGStab:  Solving for Ux, Initial residual = 0.0250885, Final residual = 0.00156491, No Iterations 2
DILUPBiCGStab:  Solving for Uy, Initial residual = 0.0177048, Final residual = 0.00122391, No Iterations 2
DILUPBiCGStab:  Solving for Uz, Initial residual = 0.0143152, Final residual = 0.00104615, No Iterations 2
GAMG:  Solving for p, Initial residual = 0.20077, Final residual = 0.00974697, No Iterations 2
time step continuity errors : sum local = 0.000341933, global = 5.96255e-06, cumulative = -0.00123561
ExecutionTime = 157.001 s  ClockTime = 157 s

Time = 473s

DILUPBiCGStab:  Solving for Ux, Initial residual = 0.0242988, Final residual = 0.00151679, No Iterations 2
DILUPBiCGStab:  Solving for Uy, Initial residual = 0.017254, Final residual = 0.00120455, No Iterations 2
DILUPBiCGStab:  Solving for Uz, Initial residual = 0.0140606, Final residual = 0.0010448, No Iterations 2
GAMG:  Solving for p, Initial residual = 0.197369, Final residual = 0.00983954, No Iterations 2
time step continuity errors : sum local = 0.000347073, global = -2.49684e-06, cumulative = -0.00123811
ExecutionTime = 157.327 s  ClockTime = 158 s

Time = 474s

DILUPBiCGStab:  Solving for Ux, Initial residual = 0.0236862, Final residual = 0.00149945, No Iterations 2
DILUPBiCGStab:  Solving for Uy, Initial residual = 0.0169698, Final residual = 0.00116721, No Iterations 2
DILUPBiCGStab:  Solving for Uz, Initial residual = 0.0139045, Final residual = 0.00105259, No Iterations 2
GAMG:  Solving for p, Initial residual = 0.195118, Final residual = 0.00981091, No Iterations 2
time step continuity errors : sum local = 0.0003486, global = -4.71584e-07, cumulative = -0.00123858
ExecutionTime = 157.652 s  ClockTime = 158 s

Time = 475s

DILUPBiCGStab:  Solving for Ux, Initial residual = 0.0232032, Final residual = 0.00150213, No Iterations 2
DILUPBiCGStab:  Solving for Uy, Initial residual = 0.01656, Final residual = 0.00119453, No Iterations 2
DILUPBiCGStab:  Solving for Uz, Initial residual = 0.013704, Final residual = 0.00104283, No Iterations 2
GAMG:  Solving for p, Initial residual = 0.193897, Final residual = 0.00961567, No Iterations 2
time step continuity errors : sum local = 0.00034438, global = -4.85061e-06, cumulative = -0.00124343
ExecutionTime = 157.978 s  ClockTime = 158 s

Time = 476s

DILUPBiCGStab:  Solving for Ux, Initial residual = 0.0228992, Final residual = 0.00145819, No Iterations 2
DILUPBiCGStab:  Solving for Uy, Initial residual = 0.0161819, Final residual = 0.00118536, No Iterations 2
DILUPBiCGStab:  Solving for Uz, Initial residual = 0.0135107, Final residual = 0.00104903, No Iterations 2
GAMG:  Solving for p, Initial residual = 0.192204, Final residual = 0.00914618, No Iterations 2
time step continuity errors : sum local = 0.000330753, global = 8.76425e-07, cumulative = -0.00124255
ExecutionTime = 158.304 s  ClockTime = 159 s

Time = 477s

DILUPBiCGStab:  Solving for Ux, Initial residual = 0.0225992, Final residual = 0.00151949, No Iterations 2
DILUPBiCGStab:  Solving for Uy, Initial residual = 0.0158214, Final residual = 0.00120404, No Iterations 2
DILUPBiCGStab:  Solving for Uz, Initial residual = 0.0132533, Final residual = 0.00103691, No Iterations 2
GAMG:  Solving for p, Initial residual = 0.190605, Final residual = 0.00913613, No Iterations 2
time step continuity errors : sum local = 0.000333818, global = -2.43346e-06, cumulative = -0.00124499
ExecutionTime = 158.631 s  ClockTime = 159 s

Time = 478s

DILUPBiCGStab:  Solving for Ux, Initial residual = 0.0221096, Final residual = 0.00150026, No Iterations 2
DILUPBiCGStab:  Solving for Uy, Initial residual = 0.0156197, Final residual = 0.00111652, No Iterations 2
DILUPBiCGStab:  Solving for Uz, Initial residual = 0.0131141, Final residual = 0.00101339, No Iterations 2
GAMG:  Solving for p, Initial residual = 0.189607, Final residual = 0.00901115, No Iterations 2
time step continuity errors : sum local = 0.000331961, global = -2.01254e-06, cumulative = -0.001247
ExecutionTime = 158.956 s  ClockTime = 159 s

Time = 479s

DILUPBiCGStab:  Solving for Ux, Initial residual = 0.021779, Final residual = 0.0014788, No Iterations 2
DILUPBiCGStab:  Solving for Uy, Initial residual = 0.0152287, Final residual = 0.00118167, No Iterations 2
DILUPBiCGStab:  Solving for Uz, Initial residual = 0.0129029, Final residual = 0.0009816, No Iterations 2
GAMG:  Solving for p, Initial residual = 0.188051, Final residual = 0.00901794, No Iterations 2
time step continuity errors : sum local = 0.000335418, global = 3.49488e-06, cumulative = -0.0012435
ExecutionTime = 159.283 s  ClockTime = 160 s

Time = 480s

DILUPBiCGStab:  Solving for Ux, Initial residual = 0.0214623, Final residual = 0.00145768, No Iterations 2
DILUPBiCGStab:  Solving for Uy, Initial residual = 0.0149457, Final residual = 0.00117876, No Iterations 2
DILUPBiCGStab:  Solving for Uz, Initial residual = 0.0127481, Final residual = 0.000963418, No Iterations 2
GAMG:  Solving for p, Initial residual = 0.186607, Final residual = 0.00921932, No Iterations 2
time step continuity errors : sum local = 0.000346283, global = 6.9794e-06, cumulative = -0.00123652
ExecutionTime = 159.611 s  ClockTime = 160 s

Time = 481s

DILUPBiCGStab:  Solving for Ux, Initial residual = 0.0220204, Final residual = 0.0014495, No Iterations 2
DILUPBiCGStab:  Solving for Uy, Initial residual = 0.0148475, Final residual = 0.00113352, No Iterations 2
DILUPBiCGStab:  Solving for Uz, Initial residual = 0.0126996, Final residual = 0.000939586, No Iterations 2
GAMG:  Solving for p, Initial residual = 0.186276, Final residual = 0.00961224, No Iterations 2
time step continuity errors : sum local = 0.000366524, global = 6.5614e-06, cumulative = -0.00122996
ExecutionTime = 159.939 s  ClockTime = 160 s

Time = 482s

DILUPBiCGStab:  Solving for Ux, Initial residual = 0.0231789, Final residual = 0.00148439, No Iterations 2
DILUPBiCGStab:  Solving for Uy, Initial residual = 0.0148249, Final residual = 0.00113771, No Iterations 2
DILUPBiCGStab:  Solving for Uz, Initial residual = 0.0126412, Final residual = 0.00092022, No Iterations 2
GAMG:  Solving for p, Initial residual = 0.185702, Final residual = 0.0117704, No Iterations 2
time step continuity errors : sum local = 0.00045748, global = -2.08015e-07, cumulative = -0.00123017
ExecutionTime = 160.265 s  ClockTime = 161 s

Time = 483s

DILUPBiCGStab:  Solving for Ux, Initial residual = 0.0257283, Final residual = 0.00162935, No Iterations 2
DILUPBiCGStab:  Solving for Uy, Initial residual = 0.0148858, Final residual = 0.00114185, No Iterations 2
DILUPBiCGStab:  Solving for Uz, Initial residual = 0.0125483, Final residual = 0.000911783, No Iterations 2
GAMG:  Solving for p, Initial residual = 0.18454, Final residual = 0.00979139, No Iterations 2
time step continuity errors : sum local = 0.000392028, global = 1.40771e-06, cumulative = -0.00122876
ExecutionTime = 160.591 s  ClockTime = 161 s

Time = 484s

DILUPBiCGStab:  Solving for Ux, Initial residual = 0.0269012, Final residual = 0.00169361, No Iterations 2
DILUPBiCGStab:  Solving for Uy, Initial residual = 0.0147132, Final residual = 0.0011124, No Iterations 2
DILUPBiCGStab:  Solving for Uz, Initial residual = 0.0123487, Final residual = 0.000892052, No Iterations 2
GAMG:  Solving for p, Initial residual = 0.182165, Final residual = 0.00942842, No Iterations 2
time step continuity errors : sum local = 0.000386327, global = 1.16157e-06, cumulative = -0.0012276
ExecutionTime = 160.916 s  ClockTime = 161 s

Time = 485s

DILUPBiCGStab:  Solving for Ux, Initial residual = 0.0275596, Final residual = 0.00181042, No Iterations 2
DILUPBiCGStab:  Solving for Uy, Initial residual = 0.0144595, Final residual = 0.00108512, No Iterations 2
DILUPBiCGStab:  Solving for Uz, Initial residual = 0.0121248, Final residual = 0.000870231, No Iterations 2
GAMG:  Solving for p, Initial residual = 0.18034, Final residual = 0.00824738, No Iterations 2
time step continuity errors : sum local = 0.000344825, global = 6.05718e-06, cumulative = -0.00122154
ExecutionTime = 161.242 s  ClockTime = 161 s

Time = 486s

DILUPBiCGStab:  Solving for Ux, Initial residual = 0.026932, Final residual = 0.00161299, No Iterations 2
DILUPBiCGStab:  Solving for Uy, Initial residual = 0.0142678, Final residual = 0.00104046, No Iterations 2
DILUPBiCGStab:  Solving for Uz, Initial residual = 0.0119727, Final residual = 0.000861063, No Iterations 2
GAMG:  Solving for p, Initial residual = 0.178418, Final residual = 0.00852415, No Iterations 2
time step continuity errors : sum local = 0.000360287, global = 3.62266e-06, cumulative = -0.00121792
ExecutionTime = 161.568 s  ClockTime = 162 s

Time = 487s

DILUPBiCGStab:  Solving for Ux, Initial residual = 0.0263289, Final residual = 0.00193286, No Iterations 2
DILUPBiCGStab:  Solving for Uy, Initial residual = 0.0141414, Final residual = 0.00101824, No Iterations 2
DILUPBiCGStab:  Solving for Uz, Initial residual = 0.0118666, Final residual = 0.000840241, No Iterations 2
GAMG:  Solving for p, Initial residual = 0.176491, Final residual = 0.00917076, No Iterations 2
time step continuity errors : sum local = 0.000391648, global = 1.63135e-06, cumulative = -0.00121629
ExecutionTime = 161.895 s  ClockTime = 162 s

Time = 488s

DILUPBiCGStab:  Solving for Ux, Initial residual = 0.0246161, Final residual = 0.00161158, No Iterations 2
DILUPBiCGStab:  Solving for Uy, Initial residual = 0.014086, Final residual = 0.00100671, No Iterations 2
DILUPBiCGStab:  Solving for Uz, Initial residual = 0.0118027, Final residual = 0.000842847, No Iterations 2
GAMG:  Solving for p, Initial residual = 0.175562, Final residual = 0.00988048, No Iterations 2
time step continuity errors : sum local = 0.000423534, global = 2.96789e-06, cumulative = -0.00121332
ExecutionTime = 162.22 s  ClockTime = 162 s

Time = 489s

DILUPBiCGStab:  Solving for Ux, Initial residual = 0.0221652, Final residual = 0.00145497, No Iterations 2
DILUPBiCGStab:  Solving for Uy, Initial residual = 0.0142045, Final residual = 0.00103707, No Iterations 2
DILUPBiCGStab:  Solving for Uz, Initial residual = 0.011751, Final residual = 0.000820727, No Iterations 2
GAMG:  Solving for p, Initial residual = 0.177415, Final residual = 0.00820325, No Iterations 3
time step continuity errors : sum local = 0.000351337, global = -4.13657e-05, cumulative = -0.00125469
ExecutionTime = 162.559 s  ClockTime = 163 s

Time = 490s

DILUPBiCGStab:  Solving for Ux, Initial residual = 0.0140918, Final residual = 0.00108136, No Iterations 2
DILUPBiCGStab:  Solving for Uy, Initial residual = 0.0153839, Final residual = 0.00114299, No Iterations 2
DILUPBiCGStab:  Solving for Uz, Initial residual = 0.0125804, Final residual = 0.000895617, No Iterations 2
GAMG:  Solving for p, Initial residual = 0.204102, Final residual = 0.0120577, No Iterations 2
time step continuity errors : sum local = 0.000488425, global = 1.84085e-05, cumulative = -0.00123628
ExecutionTime = 162.887 s  ClockTime = 163 s

Time = 491s

DILUPBiCGStab:  Solving for Ux, Initial residual = 0.0117363, Final residual = 0.000897161, No Iterations 2
DILUPBiCGStab:  Solving for Uy, Initial residual = 0.0146422, Final residual = 0.00110501, No Iterations 2
DILUPBiCGStab:  Solving for Uz, Initial residual = 0.0118982, Final residual = 0.000837744, No Iterations 2
GAMG:  Solving for p, Initial residual = 0.209028, Final residual = 0.0112042, No Iterations 2
time step continuity errors : sum local = 0.000452087, global = 1.16107e-05, cumulative = -0.00122467
ExecutionTime = 163.214 s  ClockTime = 163 s

Time = 492s

DILUPBiCGStab:  Solving for Ux, Initial residual = 0.011641, Final residual = 0.000890503, No Iterations 2
DILUPBiCGStab:  Solving for Uy, Initial residual = 0.0146855, Final residual = 0.0011032, No Iterations 2
DILUPBiCGStab:  Solving for Uz, Initial residual = 0.0118535, Final residual = 0.00083569, No Iterations 2
GAMG:  Solving for p, Initial residual = 0.205342, Final residual = 0.0106843, No Iterations 2
time step continuity errors : sum local = 0.000443903, global = 9.07678e-06, cumulative = -0.00121559
ExecutionTime = 163.539 s  ClockTime = 164 s

Time = 493s

DILUPBiCGStab:  Solving for Ux, Initial residual = 0.0127231, Final residual = 0.000965972, No Iterations 2
DILUPBiCGStab:  Solving for Uy, Initial residual = 0.0148139, Final residual = 0.0011354, No Iterations 2
DILUPBiCGStab:  Solving for Uz, Initial residual = 0.0118831, Final residual = 0.000830654, No Iterations 2
GAMG:  Solving for p, Initial residual = 0.201976, Final residual = 0.00931808, No Iterations 2
time step continuity errors : sum local = 0.000396274, global = -4.61938e-06, cumulative = -0.00122021
ExecutionTime = 163.866 s  ClockTime = 164 s

Time = 494s

DILUPBiCGStab:  Solving for Ux, Initial residual = 0.0133584, Final residual = 0.00100902, No Iterations 2
DILUPBiCGStab:  Solving for Uy, Initial residual = 0.0150326, Final residual = 0.0011539, No Iterations 2
DILUPBiCGStab:  Solving for Uz, Initial residual = 0.0120252, Final residual = 0.000840556, No Iterations 2
GAMG:  Solving for p, Initial residual = 0.19958, Final residual = 0.00885455, No Iterations 2
time step continuity errors : sum local = 0.000382256, global = 6.42488e-07, cumulative = -0.00121957
ExecutionTime = 164.191 s  ClockTime = 164 s

Time = 495s

DILUPBiCGStab:  Solving for Ux, Initial residual = 0.0137353, Final residual = 0.00102372, No Iterations 2
DILUPBiCGStab:  Solving for Uy, Initial residual = 0.0151773, Final residual = 0.00116239, No Iterations 2
DILUPBiCGStab:  Solving for Uz, Initial residual = 0.0121704, Final residual = 0.000835514, No Iterations 2
GAMG:  Solving for p, Initial residual = 0.19865, Final residual = 0.00912931, No Iterations 2
time step continuity errors : sum local = 0.000399125, global = 4.81936e-06, cumulative = -0.00121475
ExecutionTime = 164.517 s  ClockTime = 165 s

Time = 496s

DILUPBiCGStab:  Solving for Ux, Initial residual = 0.0140671, Final residual = 0.00103624, No Iterations 2
DILUPBiCGStab:  Solving for Uy, Initial residual = 0.01535, Final residual = 0.00117534, No Iterations 2
DILUPBiCGStab:  Solving for Uz, Initial residual = 0.0123312, Final residual = 0.000846657, No Iterations 2
GAMG:  Solving for p, Initial residual = 0.199718, Final residual = 0.00967083, No Iterations 2
time step continuity errors : sum local = 0.000427458, global = 3.01203e-06, cumulative = -0.00121174
ExecutionTime = 164.843 s  ClockTime = 165 s

Time = 497s

DILUPBiCGStab:  Solving for Ux, Initial residual = 0.0141685, Final residual = 0.00102443, No Iterations 2
DILUPBiCGStab:  Solving for Uy, Initial residual = 0.0155261, Final residual = 0.00118571, No Iterations 2
DILUPBiCGStab:  Solving for Uz, Initial residual = 0.0125144, Final residual = 0.000849867, No Iterations 2
GAMG:  Solving for p, Initial residual = 0.200818, Final residual = 0.0101068, No Iterations 2
time step continuity errors : sum local = 0.000449833, global = 4.83498e-06, cumulative = -0.0012069
ExecutionTime = 165.168 s  ClockTime = 165 s

Time = 498s

DILUPBiCGStab:  Solving for Ux, Initial residual = 0.0145158, Final residual = 0.00100583, No Iterations 2
DILUPBiCGStab:  Solving for Uy, Initial residual = 0.015758, Final residual = 0.00118319, No Iterations 2
DILUPBiCGStab:  Solving for Uz, Initial residual = 0.0126853, Final residual = 0.000850752, No Iterations 2
GAMG:  Solving for p, Initial residual = 0.201895, Final residual = 0.0118113, No Iterations 2
time step continuity errors : sum local = 0.000529701, global = -1.67994e-05, cumulative = -0.0012237
ExecutionTime = 165.493 s  ClockTime = 166 s

Time = 499s

DILUPBiCGStab:  Solving for Ux, Initial residual = 0.0134455, Final residual = 0.000952122, No Iterations 2
DILUPBiCGStab:  Solving for Uy, Initial residual = 0.0160726, Final residual = 0.0011997, No Iterations 2
DILUPBiCGStab:  Solving for Uz, Initial residual = 0.0129346, Final residual = 0.000854852, No Iterations 2
GAMG:  Solving for p, Initial residual = 0.206873, Final residual = 0.0141906, No Iterations 2
time step continuity errors : sum local = 0.00063374, global = -1.64933e-05, cumulative = -0.0012402
ExecutionTime = 165.819 s  ClockTime = 166 s

Time = 500s

DILUPBiCGStab:  Solving for Ux, Initial residual = 0.0133212, Final residual = 0.000937748, No Iterations 2
DILUPBiCGStab:  Solving for Uy, Initial residual = 0.0164932, Final residual = 0.00120376, No Iterations 2
DILUPBiCGStab:  Solving for Uz, Initial residual = 0.0133239, Final residual = 0.000876042, No Iterations 2
GAMG:  Solving for p, Initial residual = 0.216083, Final residual = 0.0151195, No Iterations 2
time step continuity errors : sum local = 0.000670157, global = 1.53655e-06, cumulative = -0.00123866
ExecutionTime = 166.284 s  ClockTime = 167 s

End

Finalising parallel run
