/*---------------------------------------------------------------------------*\
  =========                 |
  \\      /  F ield         | OpenFOAM: The Open Source CFD Toolbox
   \\    /   O peration     | Website:  https://openfoam.org
    \\  /    A nd           | Version:  11
     \\/     M anipulation  |
\*---------------------------------------------------------------------------*/
Build  : 11
Exec   : foamRun -parallel
Date   : Nov 01 2024
Time   : 04:09:22
Host   : "skynet-linux"
PID    : 33362
I/O    : uncollated
Case   : /home/humberto/casesXCALibre/BFS_3D_5mm_OF11
nProcs : 2
Slaves : 1("skynet-linux.33363")
Pstream initialised with:
    floatTransfer      : false
    nProcsSimpleSum    : 0
    commsType          : nonBlocking
    polling iterations : 0
sigFpe : Enabling floating point exception trapping (FOAM_SIGFPE).
fileModificationChecking : Monitoring run-time modified files using timeStampMaster (fileModificationSkew 10)
allowSystemOperations : Allowing user-supplied system call operations

// * * * * * * * * * * * * * * * * * * * * * * * * * * * * * * * * * * * * * //
Create time

Create mesh for time = 0

Selecting solver incompressibleFluid
Selecting viscosity model constant
Selecting turbulence model type laminar
Selecting laminar stress model Stokes
No MRF models present


SIMPLE: Convergence criteria found
        p: tolerance 1e-07
        U: tolerance 1e-07
        "(k|epsilon|omega|f|v2)": tolerance 1e-07


SIMPLE: Operating solver in steady-state mode with 1 outer corrector
SIMPLE: Operating solver in SIMPLE mode



Starting time loop

Time = 1s

DILUPBiCGStab:  Solving for Ux, Initial residual = 1, Final residual = 0.0712866, No Iterations 3
DILUPBiCGStab:  Solving for Uy, Initial residual = 1, Final residual = 0.0796258, No Iterations 1
DILUPBiCGStab:  Solving for Uz, Initial residual = 1, Final residual = 0.0904606, No Iterations 1
GAMG:  Solving for p, Initial residual = 1, Final residual = 0.0645571, No Iterations 12
time step continuity errors : sum local = 1.82103e-05, global = 1.52234e-06, cumulative = 1.52234e-06
ExecutionTime = 1.75817 s  ClockTime = 2 s

Time = 2s

DILUPBiCGStab:  Solving for Ux, Initial residual = 0.877687, Final residual = 0.0393475, No Iterations 2
DILUPBiCGStab:  Solving for Uy, Initial residual = 0.447495, Final residual = 0.033699, No Iterations 2
DILUPBiCGStab:  Solving for Uz, Initial residual = 0.379696, Final residual = 0.0302606, No Iterations 1
GAMG:  Solving for p, Initial residual = 0.210351, Final residual = 0.0170286, No Iterations 2
time step continuity errors : sum local = 0.00145021, global = -0.000287588, cumulative = -0.000286065
ExecutionTime = 2.38931 s  ClockTime = 3 s

Time = 3s

DILUPBiCGStab:  Solving for Ux, Initial residual = 0.419557, Final residual = 0.0214102, No Iterations 2
DILUPBiCGStab:  Solving for Uy, Initial residual = 0.290379, Final residual = 0.0192452, No Iterations 2
DILUPBiCGStab:  Solving for Uz, Initial residual = 0.306285, Final residual = 0.0243891, No Iterations 1
GAMG:  Solving for p, Initial residual = 0.183876, Final residual = 0.0167001, No Iterations 4
time step continuity errors : sum local = 0.00114553, global = -0.000146557, cumulative = -0.000432622
ExecutionTime = 3.08932 s  ClockTime = 3 s

Time = 4s

DILUPBiCGStab:  Solving for Ux, Initial residual = 0.311008, Final residual = 0.0202826, No Iterations 2
DILUPBiCGStab:  Solving for Uy, Initial residual = 0.415771, Final residual = 0.0293037, No Iterations 1
DILUPBiCGStab:  Solving for Uz, Initial residual = 0.526601, Final residual = 0.0305218, No Iterations 1
GAMG:  Solving for p, Initial residual = 0.311217, Final residual = 0.0165701, No Iterations 4
time step continuity errors : sum local = 0.000640484, global = -0.000122904, cumulative = -0.000555526
ExecutionTime = 3.76795 s  ClockTime = 4 s

Time = 5s

DILUPBiCGStab:  Solving for Ux, Initial residual = 0.606143, Final residual = 0.0331874, No Iterations 2
DILUPBiCGStab:  Solving for Uy, Initial residual = 0.348447, Final residual = 0.0308183, No Iterations 2
DILUPBiCGStab:  Solving for Uz, Initial residual = 0.309413, Final residual = 0.0217972, No Iterations 1
GAMG:  Solving for p, Initial residual = 0.289129, Final residual = 0.0203752, No Iterations 2
time step continuity errors : sum local = 0.00193736, global = 3.93317e-05, cumulative = -0.000516194
ExecutionTime = 4.3889 s  ClockTime = 5 s

Time = 6s

DILUPBiCGStab:  Solving for Ux, Initial residual = 0.553065, Final residual = 0.0387623, No Iterations 2
DILUPBiCGStab:  Solving for Uy, Initial residual = 0.327892, Final residual = 0.0254643, No Iterations 2
DILUPBiCGStab:  Solving for Uz, Initial residual = 0.297837, Final residual = 0.0246053, No Iterations 1
GAMG:  Solving for p, Initial residual = 0.281092, Final residual = 0.0110458, No Iterations 4
time step continuity errors : sum local = 0.000638385, global = 0.000145087, cumulative = -0.000371107
ExecutionTime = 5.08505 s  ClockTime = 5 s

Time = 7s

DILUPBiCGStab:  Solving for Ux, Initial residual = 0.375888, Final residual = 0.0289836, No Iterations 2
DILUPBiCGStab:  Solving for Uy, Initial residual = 0.406374, Final residual = 0.0237784, No Iterations 2
DILUPBiCGStab:  Solving for Uz, Initial residual = 0.51293, Final residual = 0.0284023, No Iterations 2
GAMG:  Solving for p, Initial residual = 0.404056, Final residual = 0.0267335, No Iterations 3
time step continuity errors : sum local = 0.000722283, global = 9.63101e-05, cumulative = -0.000274797
ExecutionTime = 5.76217 s  ClockTime = 6 s

Time = 8s

DILUPBiCGStab:  Solving for Ux, Initial residual = 0.632955, Final residual = 0.0328199, No Iterations 2
DILUPBiCGStab:  Solving for Uy, Initial residual = 0.32887, Final residual = 0.0298157, No Iterations 2
DILUPBiCGStab:  Solving for Uz, Initial residual = 0.292205, Final residual = 0.0160756, No Iterations 2
GAMG:  Solving for p, Initial residual = 0.325536, Final residual = 0.0259122, No Iterations 2
time step continuity errors : sum local = 0.00132953, global = -0.000158613, cumulative = -0.000433411
ExecutionTime = 6.40315 s  ClockTime = 7 s

Time = 9s

DILUPBiCGStab:  Solving for Ux, Initial residual = 0.548051, Final residual = 0.0285162, No Iterations 2
DILUPBiCGStab:  Solving for Uy, Initial residual = 0.283423, Final residual = 0.0218864, No Iterations 2
DILUPBiCGStab:  Solving for Uz, Initial residual = 0.211711, Final residual = 0.0129303, No Iterations 2
GAMG:  Solving for p, Initial residual = 0.315689, Final residual = 0.0300695, No Iterations 3
time step continuity errors : sum local = 0.00148084, global = 0.000131647, cumulative = -0.000301764
ExecutionTime = 7.08118 s  ClockTime = 7 s

Time = 10s

DILUPBiCGStab:  Solving for Ux, Initial residual = 0.253832, Final residual = 0.0178517, No Iterations 2
DILUPBiCGStab:  Solving for Uy, Initial residual = 0.316621, Final residual = 0.0172623, No Iterations 2
DILUPBiCGStab:  Solving for Uz, Initial residual = 0.404598, Final residual = 0.0205188, No Iterations 2
GAMG:  Solving for p, Initial residual = 0.455701, Final residual = 0.0220321, No Iterations 4
time step continuity errors : sum local = 0.000526652, global = -0.00010136, cumulative = -0.000403124
ExecutionTime = 7.79608 s  ClockTime = 8 s

Time = 11s

DILUPBiCGStab:  Solving for Ux, Initial residual = 0.4083, Final residual = 0.0194817, No Iterations 2
DILUPBiCGStab:  Solving for Uy, Initial residual = 0.293583, Final residual = 0.0257509, No Iterations 2
DILUPBiCGStab:  Solving for Uz, Initial residual = 0.291047, Final residual = 0.0145055, No Iterations 2
GAMG:  Solving for p, Initial residual = 0.281344, Final residual = 0.0249065, No Iterations 2
time step continuity errors : sum local = 0.00128556, global = 7.02035e-05, cumulative = -0.000332921
ExecutionTime = 8.43891 s  ClockTime = 9 s

Time = 12s

DILUPBiCGStab:  Solving for Ux, Initial residual = 0.350583, Final residual = 0.0173679, No Iterations 2
DILUPBiCGStab:  Solving for Uy, Initial residual = 0.251536, Final residual = 0.0208487, No Iterations 2
DILUPBiCGStab:  Solving for Uz, Initial residual = 0.181809, Final residual = 0.0111587, No Iterations 2
GAMG:  Solving for p, Initial residual = 0.310519, Final residual = 0.00999378, No Iterations 4
time step continuity errors : sum local = 0.000450032, global = 8.78473e-05, cumulative = -0.000245073
ExecutionTime = 9.15564 s  ClockTime = 9 s

Time = 13s

DILUPBiCGStab:  Solving for Ux, Initial residual = 0.183035, Final residual = 0.0117467, No Iterations 2
DILUPBiCGStab:  Solving for Uy, Initial residual = 0.304423, Final residual = 0.0273348, No Iterations 2
DILUPBiCGStab:  Solving for Uz, Initial residual = 0.332268, Final residual = 0.0233323, No Iterations 2
GAMG:  Solving for p, Initial residual = 0.494879, Final residual = 0.0159885, No Iterations 4
time step continuity errors : sum local = 0.00028011, global = 6.3773e-05, cumulative = -0.0001813
ExecutionTime = 9.87311 s  ClockTime = 10 s

Time = 14s

DILUPBiCGStab:  Solving for Ux, Initial residual = 0.46463, Final residual = 0.0268549, No Iterations 2
DILUPBiCGStab:  Solving for Uy, Initial residual = 0.320336, Final residual = 0.0248224, No Iterations 2
DILUPBiCGStab:  Solving for Uz, Initial residual = 0.339956, Final residual = 0.0169528, No Iterations 2
GAMG:  Solving for p, Initial residual = 0.30658, Final residual = 0.0134234, No Iterations 3
time step continuity errors : sum local = 0.000495467, global = 5.01809e-05, cumulative = -0.000131119
ExecutionTime = 10.5588 s  ClockTime = 11 s

Time = 15s

DILUPBiCGStab:  Solving for Ux, Initial residual = 0.601946, Final residual = 0.0282872, No Iterations 2
DILUPBiCGStab:  Solving for Uy, Initial residual = 0.273073, Final residual = 0.0207488, No Iterations 2
DILUPBiCGStab:  Solving for Uz, Initial residual = 0.2108, Final residual = 0.0150189, No Iterations 2
GAMG:  Solving for p, Initial residual = 0.33029, Final residual = 0.0169109, No Iterations 3
time step continuity errors : sum local = 0.000639221, global = 4.42262e-05, cumulative = -8.68931e-05
ExecutionTime = 11.2387 s  ClockTime = 11 s

Time = 16s

DILUPBiCGStab:  Solving for Ux, Initial residual = 0.299222, Final residual = 0.0192299, No Iterations 2
DILUPBiCGStab:  Solving for Uy, Initial residual = 0.246005, Final residual = 0.0157574, No Iterations 2
DILUPBiCGStab:  Solving for Uz, Initial residual = 0.304715, Final residual = 0.0280327, No Iterations 2
GAMG:  Solving for p, Initial residual = 0.535236, Final residual = 0.0345366, No Iterations 3
time step continuity errors : sum local = 0.0005911, global = -8.09182e-05, cumulative = -0.000167811
ExecutionTime = 11.9189 s  ClockTime = 12 s

Time = 17s

DILUPBiCGStab:  Solving for Ux, Initial residual = 0.246903, Final residual = 0.0164392, No Iterations 2
DILUPBiCGStab:  Solving for Uy, Initial residual = 0.256687, Final residual = 0.0125424, No Iterations 2
DILUPBiCGStab:  Solving for Uz, Initial residual = 0.309366, Final residual = 0.0169332, No Iterations 2
GAMG:  Solving for p, Initial residual = 0.330929, Final residual = 0.0238738, No Iterations 3
time step continuity errors : sum local = 0.000656803, global = -6.71592e-05, cumulative = -0.00023497
ExecutionTime = 12.6181 s  ClockTime = 13 s

Time = 18s

DILUPBiCGStab:  Solving for Ux, Initial residual = 0.278833, Final residual = 0.013344, No Iterations 2
DILUPBiCGStab:  Solving for Uy, Initial residual = 0.251852, Final residual = 0.0197096, No Iterations 2
DILUPBiCGStab:  Solving for Uz, Initial residual = 0.212227, Final residual = 0.0134183, No Iterations 2
GAMG:  Solving for p, Initial residual = 0.311237, Final residual = 0.0137682, No Iterations 3
time step continuity errors : sum local = 0.000467976, global = -3.05078e-05, cumulative = -0.000265478
ExecutionTime = 13.2959 s  ClockTime = 13 s

Time = 19s

DILUPBiCGStab:  Solving for Ux, Initial residual = 0.191382, Final residual = 0.010196, No Iterations 2
DILUPBiCGStab:  Solving for Uy, Initial residual = 0.233185, Final residual = 0.0181342, No Iterations 2
DILUPBiCGStab:  Solving for Uz, Initial residual = 0.215449, Final residual = 0.0133051, No Iterations 2
GAMG:  Solving for p, Initial residual = 0.384592, Final residual = 0.0341419, No Iterations 3
time step continuity errors : sum local = 0.000768773, global = 9.26373e-05, cumulative = -0.000172841
ExecutionTime = 13.9734 s  ClockTime = 14 s

Time = 20s

DILUPBiCGStab:  Solving for Ux, Initial residual = 0.229454, Final residual = 0.013099, No Iterations 2
DILUPBiCGStab:  Solving for Uy, Initial residual = 0.256073, Final residual = 0.0149688, No Iterations 2
DILUPBiCGStab:  Solving for Uz, Initial residual = 0.300005, Final residual = 0.0161312, No Iterations 2
GAMG:  Solving for p, Initial residual = 0.386497, Final residual = 0.0260621, No Iterations 3
time step continuity errors : sum local = 0.000508726, global = 5.53203e-05, cumulative = -0.000117521
ExecutionTime = 14.6514 s  ClockTime = 15 s

Time = 21s

DILUPBiCGStab:  Solving for Ux, Initial residual = 0.42961, Final residual = 0.021586, No Iterations 2
DILUPBiCGStab:  Solving for Uy, Initial residual = 0.243551, Final residual = 0.0195192, No Iterations 2
DILUPBiCGStab:  Solving for Uz, Initial residual = 0.21626, Final residual = 0.0154924, No Iterations 2
GAMG:  Solving for p, Initial residual = 0.306985, Final residual = 0.0151011, No Iterations 3
time step continuity errors : sum local = 0.000402606, global = 2.65381e-05, cumulative = -9.09825e-05
ExecutionTime = 15.3295 s  ClockTime = 16 s

Time = 22s

DILUPBiCGStab:  Solving for Ux, Initial residual = 0.428474, Final residual = 0.0203748, No Iterations 2
DILUPBiCGStab:  Solving for Uy, Initial residual = 0.210476, Final residual = 0.0160758, No Iterations 2
DILUPBiCGStab:  Solving for Uz, Initial residual = 0.203948, Final residual = 0.0132721, No Iterations 2
GAMG:  Solving for p, Initial residual = 0.362675, Final residual = 0.0241276, No Iterations 3
time step continuity errors : sum local = 0.00055885, global = -9.09593e-05, cumulative = -0.000181942
ExecutionTime = 16.0078 s  ClockTime = 16 s

Time = 23s

DILUPBiCGStab:  Solving for Ux, Initial residual = 0.207284, Final residual = 0.0118953, No Iterations 2
DILUPBiCGStab:  Solving for Uy, Initial residual = 0.195933, Final residual = 0.011516, No Iterations 2
DILUPBiCGStab:  Solving for Uz, Initial residual = 0.257167, Final residual = 0.0245065, No Iterations 2
GAMG:  Solving for p, Initial residual = 0.603695, Final residual = 0.0406146, No Iterations 3
time step continuity errors : sum local = 0.000459754, global = -6.00314e-05, cumulative = -0.000241973
ExecutionTime = 16.6845 s  ClockTime = 17 s

Time = 24s

DILUPBiCGStab:  Solving for Ux, Initial residual = 0.213189, Final residual = 0.011613, No Iterations 2
DILUPBiCGStab:  Solving for Uy, Initial residual = 0.217141, Final residual = 0.013786, No Iterations 2
DILUPBiCGStab:  Solving for Uz, Initial residual = 0.219593, Final residual = 0.0103193, No Iterations 2
GAMG:  Solving for p, Initial residual = 0.343226, Final residual = 0.0179295, No Iterations 3
time step continuity errors : sum local = 0.000376601, global = -3.07036e-05, cumulative = -0.000272677
ExecutionTime = 17.3815 s  ClockTime = 18 s

Time = 25s

DILUPBiCGStab:  Solving for Ux, Initial residual = 0.195199, Final residual = 0.00978064, No Iterations 2
DILUPBiCGStab:  Solving for Uy, Initial residual = 0.202079, Final residual = 0.0146486, No Iterations 2
DILUPBiCGStab:  Solving for Uz, Initial residual = 0.181697, Final residual = 0.012874, No Iterations 2
GAMG:  Solving for p, Initial residual = 0.36465, Final residual = 0.0240884, No Iterations 3
time step continuity errors : sum local = 0.000502451, global = 7.75664e-05, cumulative = -0.000195111
ExecutionTime = 18.0572 s  ClockTime = 18 s

Time = 26s

DILUPBiCGStab:  Solving for Ux, Initial residual = 0.163039, Final residual = 0.0100883, No Iterations 2
DILUPBiCGStab:  Solving for Uy, Initial residual = 0.18801, Final residual = 0.011954, No Iterations 2
DILUPBiCGStab:  Solving for Uz, Initial residual = 0.203185, Final residual = 0.0115252, No Iterations 2
GAMG:  Solving for p, Initial residual = 0.671945, Final residual = 0.0400335, No Iterations 3
time step continuity errors : sum local = 0.000361992, global = 4.88028e-05, cumulative = -0.000146308
ExecutionTime = 18.7344 s  ClockTime = 19 s

Time = 27s

DILUPBiCGStab:  Solving for Ux, Initial residual = 0.280791, Final residual = 0.0153447, No Iterations 2
DILUPBiCGStab:  Solving for Uy, Initial residual = 0.204929, Final residual = 0.0192416, No Iterations 2
DILUPBiCGStab:  Solving for Uz, Initial residual = 0.204264, Final residual = 0.0147784, No Iterations 2
GAMG:  Solving for p, Initial residual = 0.333035, Final residual = 0.0201086, No Iterations 3
time step continuity errors : sum local = 0.000360157, global = 3.3335e-05, cumulative = -0.000112973
ExecutionTime = 19.4113 s  ClockTime = 20 s

Time = 28s

DILUPBiCGStab:  Solving for Ux, Initial residual = 0.429928, Final residual = 0.0200091, No Iterations 2
DILUPBiCGStab:  Solving for Uy, Initial residual = 0.186829, Final residual = 0.0144902, No Iterations 2
DILUPBiCGStab:  Solving for Uz, Initial residual = 0.170464, Final residual = 0.011141, No Iterations 2
GAMG:  Solving for p, Initial residual = 0.308871, Final residual = 0.0193101, No Iterations 3
time step continuity errors : sum local = 0.000430561, global = -6.36693e-05, cumulative = -0.000176642
ExecutionTime = 20.0891 s  ClockTime = 20 s

Time = 29s

DILUPBiCGStab:  Solving for Ux, Initial residual = 0.298319, Final residual = 0.017872, No Iterations 2
DILUPBiCGStab:  Solving for Uy, Initial residual = 0.154105, Final residual = 0.00990493, No Iterations 2
DILUPBiCGStab:  Solving for Uz, Initial residual = 0.17259, Final residual = 0.0103018, No Iterations 2
GAMG:  Solving for p, Initial residual = 0.387781, Final residual = 0.026927, No Iterations 3
time step continuity errors : sum local = 0.000433909, global = -7.16187e-05, cumulative = -0.000248261
ExecutionTime = 20.7651 s  ClockTime = 21 s

Time = 30s

DILUPBiCGStab:  Solving for Ux, Initial residual = 0.172368, Final residual = 0.0109232, No Iterations 2
DILUPBiCGStab:  Solving for Uy, Initial residual = 0.174759, Final residual = 0.0135979, No Iterations 2
DILUPBiCGStab:  Solving for Uz, Initial residual = 0.194484, Final residual = 0.0113543, No Iterations 2
GAMG:  Solving for p, Initial residual = 0.453185, Final residual = 0.0230393, No Iterations 3
time step continuity errors : sum local = 0.00028164, global = -3.15922e-05, cumulative = -0.000279853
ExecutionTime = 21.4428 s  ClockTime = 22 s

Time = 31s

DILUPBiCGStab:  Solving for Ux, Initial residual = 0.212158, Final residual = 0.0134109, No Iterations 2
DILUPBiCGStab:  Solving for Uy, Initial residual = 0.164182, Final residual = 0.0130613, No Iterations 2
DILUPBiCGStab:  Solving for Uz, Initial residual = 0.160471, Final residual = 0.0106838, No Iterations 2
GAMG:  Solving for p, Initial residual = 0.341204, Final residual = 0.0161168, No Iterations 3
time step continuity errors : sum local = 0.000293991, global = 5.88378e-05, cumulative = -0.000221015
ExecutionTime = 22.12 s  ClockTime = 22 s

Time = 32s

DILUPBiCGStab:  Solving for Ux, Initial residual = 0.173785, Final residual = 0.00911799, No Iterations 2
DILUPBiCGStab:  Solving for Uy, Initial residual = 0.131304, Final residual = 0.00978209, No Iterations 2
DILUPBiCGStab:  Solving for Uz, Initial residual = 0.128917, Final residual = 0.00536507, No Iterations 2
GAMG:  Solving for p, Initial residual = 0.394809, Final residual = 0.0335816, No Iterations 3
time step continuity errors : sum local = 0.000475662, global = 5.07884e-05, cumulative = -0.000170227
ExecutionTime = 22.8151 s  ClockTime = 23 s

Time = 33s

DILUPBiCGStab:  Solving for Ux, Initial residual = 0.202899, Final residual = 0.0139164, No Iterations 2
DILUPBiCGStab:  Solving for Uy, Initial residual = 0.1666, Final residual = 0.00642723, No Iterations 2
DILUPBiCGStab:  Solving for Uz, Initial residual = 0.170576, Final residual = 0.0104994, No Iterations 2
GAMG:  Solving for p, Initial residual = 0.406558, Final residual = 0.0306266, No Iterations 3
time step continuity errors : sum local = 0.00036508, global = 2.73411e-05, cumulative = -0.000142886
ExecutionTime = 23.5117 s  ClockTime = 24 s

Time = 34s

DILUPBiCGStab:  Solving for Ux, Initial residual = 0.402705, Final residual = 0.0197833, No Iterations 2
DILUPBiCGStab:  Solving for Uy, Initial residual = 0.156341, Final residual = 0.0117848, No Iterations 2
DILUPBiCGStab:  Solving for Uz, Initial residual = 0.147692, Final residual = 0.0128723, No Iterations 2
GAMG:  Solving for p, Initial residual = 0.272061, Final residual = 0.014022, No Iterations 3
time step continuity errors : sum local = 0.000286223, global = -2.3298e-05, cumulative = -0.000166184
ExecutionTime = 24.1891 s  ClockTime = 24 s

Time = 35s

DILUPBiCGStab:  Solving for Ux, Initial residual = 0.311204, Final residual = 0.0155542, No Iterations 2
DILUPBiCGStab:  Solving for Uy, Initial residual = 0.121892, Final residual = 0.00906766, No Iterations 2
DILUPBiCGStab:  Solving for Uz, Initial residual = 0.12171, Final residual = 0.00866736, No Iterations 2
GAMG:  Solving for p, Initial residual = 0.291615, Final residual = 0.023222, No Iterations 3
time step continuity errors : sum local = 0.000412734, global = 9.62659e-06, cumulative = -0.000156557
ExecutionTime = 24.8665 s  ClockTime = 25 s

Time = 36s

DILUPBiCGStab:  Solving for Ux, Initial residual = 0.150303, Final residual = 0.00944529, No Iterations 2
DILUPBiCGStab:  Solving for Uy, Initial residual = 0.136341, Final residual = 0.0111887, No Iterations 2
DILUPBiCGStab:  Solving for Uz, Initial residual = 0.151247, Final residual = 0.00928809, No Iterations 2
GAMG:  Solving for p, Initial residual = 0.564066, Final residual = 0.0321742, No Iterations 3
time step continuity errors : sum local = 0.000260899, global = -3.51006e-05, cumulative = -0.000191658
ExecutionTime = 25.5437 s  ClockTime = 26 s

Time = 37s

DILUPBiCGStab:  Solving for Ux, Initial residual = 0.172427, Final residual = 0.00907301, No Iterations 2
DILUPBiCGStab:  Solving for Uy, Initial residual = 0.121346, Final residual = 0.0114287, No Iterations 2
DILUPBiCGStab:  Solving for Uz, Initial residual = 0.124933, Final residual = 0.0103213, No Iterations 2
GAMG:  Solving for p, Initial residual = 0.330262, Final residual = 0.0171879, No Iterations 3
time step continuity errors : sum local = 0.000249412, global = 2.37225e-05, cumulative = -0.000167935
ExecutionTime = 26.2214 s  ClockTime = 26 s

Time = 38s

DILUPBiCGStab:  Solving for Ux, Initial residual = 0.157447, Final residual = 0.00866951, No Iterations 2
DILUPBiCGStab:  Solving for Uy, Initial residual = 0.101631, Final residual = 0.00732351, No Iterations 2
DILUPBiCGStab:  Solving for Uz, Initial residual = 0.0998616, Final residual = 0.00782539, No Iterations 2
GAMG:  Solving for p, Initial residual = 0.366598, Final residual = 0.0237095, No Iterations 3
time step continuity errors : sum local = 0.000289083, global = -1.89522e-05, cumulative = -0.000186887
ExecutionTime = 26.8987 s  ClockTime = 27 s

Time = 39s

DILUPBiCGStab:  Solving for Ux, Initial residual = 0.16863, Final residual = 0.00950969, No Iterations 2
DILUPBiCGStab:  Solving for Uy, Initial residual = 0.114533, Final residual = 0.00862678, No Iterations 2
DILUPBiCGStab:  Solving for Uz, Initial residual = 0.115989, Final residual = 0.00751644, No Iterations 2
GAMG:  Solving for p, Initial residual = 0.417002, Final residual = 0.0209003, No Iterations 3
time step continuity errors : sum local = 0.000197089, global = 2.52557e-05, cumulative = -0.000161632
ExecutionTime = 27.5782 s  ClockTime = 28 s

Time = 40s

DILUPBiCGStab:  Solving for Ux, Initial residual = 0.244321, Final residual = 0.0119471, No Iterations 2
DILUPBiCGStab:  Solving for Uy, Initial residual = 0.102222, Final residual = 0.00699615, No Iterations 2
DILUPBiCGStab:  Solving for Uz, Initial residual = 0.100732, Final residual = 0.00679554, No Iterations 2
GAMG:  Solving for p, Initial residual = 0.266519, Final residual = 0.0162844, No Iterations 3
time step continuity errors : sum local = 0.000238121, global = 5.58128e-06, cumulative = -0.00015605
ExecutionTime = 28.254 s  ClockTime = 28 s

Time = 41s

DILUPBiCGStab:  Solving for Ux, Initial residual = 0.222929, Final residual = 0.0106204, No Iterations 2
DILUPBiCGStab:  Solving for Uy, Initial residual = 0.0920598, Final residual = 0.00657692, No Iterations 2
DILUPBiCGStab:  Solving for Uz, Initial residual = 0.0925451, Final residual = 0.00599211, No Iterations 2
GAMG:  Solving for p, Initial residual = 0.262877, Final residual = 0.0158962, No Iterations 3
time step continuity errors : sum local = 0.000235254, global = 9.03828e-06, cumulative = -0.000147012
ExecutionTime = 28.9315 s  ClockTime = 29 s

Time = 42s

DILUPBiCGStab:  Solving for Ux, Initial residual = 0.134478, Final residual = 0.00715514, No Iterations 2
DILUPBiCGStab:  Solving for Uy, Initial residual = 0.095118, Final residual = 0.00682206, No Iterations 2
DILUPBiCGStab:  Solving for Uz, Initial residual = 0.0955151, Final residual = 0.00635372, No Iterations 2
GAMG:  Solving for p, Initial residual = 0.50264, Final residual = 0.0251384, No Iterations 3
time step continuity errors : sum local = 0.000183506, global = -2.38331e-05, cumulative = -0.000170845
ExecutionTime = 29.609 s  ClockTime = 30 s

Time = 43s

DILUPBiCGStab:  Solving for Ux, Initial residual = 0.0991236, Final residual = 0.00551098, No Iterations 2
DILUPBiCGStab:  Solving for Uy, Initial residual = 0.0845407, Final residual = 0.00586293, No Iterations 2
DILUPBiCGStab:  Solving for Uz, Initial residual = 0.0859358, Final residual = 0.00573562, No Iterations 2
GAMG:  Solving for p, Initial residual = 0.398959, Final residual = 0.0232108, No Iterations 3
time step continuity errors : sum local = 0.000208926, global = -1.73227e-05, cumulative = -0.000188168
ExecutionTime = 30.2854 s  ClockTime = 30 s

Time = 44s

DILUPBiCGStab:  Solving for Ux, Initial residual = 0.103036, Final residual = 0.00583254, No Iterations 2
DILUPBiCGStab:  Solving for Uy, Initial residual = 0.0746788, Final residual = 0.00546842, No Iterations 2
DILUPBiCGStab:  Solving for Uz, Initial residual = 0.07846, Final residual = 0.00527972, No Iterations 2
GAMG:  Solving for p, Initial residual = 0.355549, Final residual = 0.0198284, No Iterations 3
time step continuity errors : sum local = 0.000190714, global = 1.50761e-05, cumulative = -0.000173092
ExecutionTime = 30.9643 s  ClockTime = 31 s

Time = 45s

DILUPBiCGStab:  Solving for Ux, Initial residual = 0.117168, Final residual = 0.00599757, No Iterations 2
DILUPBiCGStab:  Solving for Uy, Initial residual = 0.0756093, Final residual = 0.00530972, No Iterations 2
DILUPBiCGStab:  Solving for Uz, Initial residual = 0.0717647, Final residual = 0.00498741, No Iterations 2
GAMG:  Solving for p, Initial residual = 0.544322, Final residual = 0.0231984, No Iterations 3
time step continuity errors : sum local = 0.000136665, global = 1.93826e-05, cumulative = -0.000153709
ExecutionTime = 31.6408 s  ClockTime = 32 s

Time = 46s

DILUPBiCGStab:  Solving for Ux, Initial residual = 0.111726, Final residual = 0.00644245, No Iterations 2
DILUPBiCGStab:  Solving for Uy, Initial residual = 0.0715452, Final residual = 0.00530208, No Iterations 2
DILUPBiCGStab:  Solving for Uz, Initial residual = 0.0667197, Final residual = 0.00307612, No Iterations 2
GAMG:  Solving for p, Initial residual = 0.340976, Final residual = 0.021348, No Iterations 3
time step continuity errors : sum local = 0.000176055, global = 2.02624e-05, cumulative = -0.000133447
ExecutionTime = 32.3367 s  ClockTime = 33 s

Time = 47s

DILUPBiCGStab:  Solving for Ux, Initial residual = 0.11879, Final residual = 0.00637821, No Iterations 2
DILUPBiCGStab:  Solving for Uy, Initial residual = 0.066111, Final residual = 0.00486952, No Iterations 2
DILUPBiCGStab:  Solving for Uz, Initial residual = 0.065985, Final residual = 0.00446878, No Iterations 2
GAMG:  Solving for p, Initial residual = 0.255982, Final residual = 0.0136363, No Iterations 3
time step continuity errors : sum local = 0.000142481, global = -2.14401e-05, cumulative = -0.000154887
ExecutionTime = 33.0151 s  ClockTime = 33 s

Time = 48s

DILUPBiCGStab:  Solving for Ux, Initial residual = 0.118724, Final residual = 0.00588901, No Iterations 2
DILUPBiCGStab:  Solving for Uy, Initial residual = 0.0642517, Final residual = 0.00442212, No Iterations 2
DILUPBiCGStab:  Solving for Uz, Initial residual = 0.06194, Final residual = 0.00417268, No Iterations 2
GAMG:  Solving for p, Initial residual = 0.26804, Final residual = 0.00947692, No Iterations 3
time step continuity errors : sum local = 0.000100429, global = -1.67894e-05, cumulative = -0.000171676
ExecutionTime = 33.6924 s  ClockTime = 34 s

Time = 49s

DILUPBiCGStab:  Solving for Ux, Initial residual = 0.0766926, Final residual = 0.00422464, No Iterations 2
DILUPBiCGStab:  Solving for Uy, Initial residual = 0.0625906, Final residual = 0.00421082, No Iterations 2
DILUPBiCGStab:  Solving for Uz, Initial residual = 0.0575329, Final residual = 0.00396843, No Iterations 2
GAMG:  Solving for p, Initial residual = 0.409842, Final residual = 0.0203392, No Iterations 3
time step continuity errors : sum local = 0.000131034, global = -1.66689e-05, cumulative = -0.000188345
ExecutionTime = 34.3738 s  ClockTime = 35 s

Time = 50s

DILUPBiCGStab:  Solving for Ux, Initial residual = 0.0518479, Final residual = 0.00328982, No Iterations 2
DILUPBiCGStab:  Solving for Uy, Initial residual = 0.0565646, Final residual = 0.00391393, No Iterations 2
DILUPBiCGStab:  Solving for Uz, Initial residual = 0.0575459, Final residual = 0.00389716, No Iterations 2
GAMG:  Solving for p, Initial residual = 0.386067, Final residual = 0.0219039, No Iterations 3
time step continuity errors : sum local = 0.000140433, global = -8.91354e-06, cumulative = -0.000197259
ExecutionTime = 35.0531 s  ClockTime = 35 s

Time = 51s

DILUPBiCGStab:  Solving for Ux, Initial residual = 0.0724794, Final residual = 0.00391023, No Iterations 2
DILUPBiCGStab:  Solving for Uy, Initial residual = 0.0527615, Final residual = 0.00358979, No Iterations 2
DILUPBiCGStab:  Solving for Uz, Initial residual = 0.0533504, Final residual = 0.00356156, No Iterations 2
GAMG:  Solving for p, Initial residual = 0.354436, Final residual = 0.0125984, No Iterations 3
time step continuity errors : sum local = 8.88293e-05, global = 1.50637e-05, cumulative = -0.000182195
ExecutionTime = 35.7332 s  ClockTime = 36 s

Time = 52s

DILUPBiCGStab:  Solving for Ux, Initial residual = 0.0689488, Final residual = 0.0036948, No Iterations 2
DILUPBiCGStab:  Solving for Uy, Initial residual = 0.0501562, Final residual = 0.00346969, No Iterations 2
DILUPBiCGStab:  Solving for Uz, Initial residual = 0.0452946, Final residual = 0.00312282, No Iterations 2
GAMG:  Solving for p, Initial residual = 0.465635, Final residual = 0.0213842, No Iterations 3
time step continuity errors : sum local = 0.000103204, global = 1.52878e-05, cumulative = -0.000166907
ExecutionTime = 36.4113 s  ClockTime = 37 s

Time = 53s

DILUPBiCGStab:  Solving for Ux, Initial residual = 0.0659335, Final residual = 0.00361159, No Iterations 2
DILUPBiCGStab:  Solving for Uy, Initial residual = 0.0500122, Final residual = 0.00343444, No Iterations 2
DILUPBiCGStab:  Solving for Uz, Initial residual = 0.0467241, Final residual = 0.00312864, No Iterations 2
GAMG:  Solving for p, Initial residual = 0.2799, Final residual = 0.0128877, No Iterations 3
time step continuity errors : sum local = 9.52727e-05, global = 1.19218e-05, cumulative = -0.000154985
ExecutionTime = 37.0883 s  ClockTime = 37 s

Time = 54s

DILUPBiCGStab:  Solving for Ux, Initial residual = 0.0837758, Final residual = 0.00423601, No Iterations 2
DILUPBiCGStab:  Solving for Uy, Initial residual = 0.0494067, Final residual = 0.00351677, No Iterations 2
DILUPBiCGStab:  Solving for Uz, Initial residual = 0.0463674, Final residual = 0.00313303, No Iterations 2
GAMG:  Solving for p, Initial residual = 0.221832, Final residual = 0.00828455, No Iterations 3
time step continuity errors : sum local = 8.37711e-05, global = -1.60051e-05, cumulative = -0.00017099
ExecutionTime = 37.7675 s  ClockTime = 38 s

Time = 55s

DILUPBiCGStab:  Solving for Ux, Initial residual = 0.0733867, Final residual = 0.00375747, No Iterations 2
DILUPBiCGStab:  Solving for Uy, Initial residual = 0.048384, Final residual = 0.00327343, No Iterations 2
DILUPBiCGStab:  Solving for Uz, Initial residual = 0.0424606, Final residual = 0.00286523, No Iterations 2
GAMG:  Solving for p, Initial residual = 0.237696, Final residual = 0.00878881, No Iterations 3
time step continuity errors : sum local = 8.07574e-05, global = -1.42978e-05, cumulative = -0.000185288
ExecutionTime = 38.4453 s  ClockTime = 39 s

Time = 56s

DILUPBiCGStab:  Solving for Ux, Initial residual = 0.0389586, Final residual = 0.00247417, No Iterations 2
DILUPBiCGStab:  Solving for Uy, Initial residual = 0.0488297, Final residual = 0.00327157, No Iterations 2
DILUPBiCGStab:  Solving for Uz, Initial residual = 0.0436537, Final residual = 0.00289071, No Iterations 2
GAMG:  Solving for p, Initial residual = 0.388164, Final residual = 0.0155484, No Iterations 3
time step continuity errors : sum local = 7.97193e-05, global = -1.12026e-05, cumulative = -0.000196491
ExecutionTime = 39.1245 s  ClockTime = 39 s

Time = 57s

DILUPBiCGStab:  Solving for Ux, Initial residual = 0.0415758, Final residual = 0.00248464, No Iterations 2
DILUPBiCGStab:  Solving for Uy, Initial residual = 0.0434579, Final residual = 0.00290933, No Iterations 2
DILUPBiCGStab:  Solving for Uz, Initial residual = 0.0419524, Final residual = 0.00277936, No Iterations 2
GAMG:  Solving for p, Initial residual = 0.323678, Final residual = 0.0131298, No Iterations 3
time step continuity errors : sum local = 8.28631e-05, global = 1.24329e-05, cumulative = -0.000184058
ExecutionTime = 39.8014 s  ClockTime = 40 s

Time = 58s

DILUPBiCGStab:  Solving for Ux, Initial residual = 0.0470604, Final residual = 0.00263797, No Iterations 2
DILUPBiCGStab:  Solving for Uy, Initial residual = 0.0386816, Final residual = 0.00269019, No Iterations 2
DILUPBiCGStab:  Solving for Uz, Initial residual = 0.035903, Final residual = 0.00241218, No Iterations 2
GAMG:  Solving for p, Initial residual = 0.320656, Final residual = 0.00955441, No Iterations 3
time step continuity errors : sum local = 5.82322e-05, global = 1.01497e-05, cumulative = -0.000173908
ExecutionTime = 40.4786 s  ClockTime = 41 s

Time = 59s

DILUPBiCGStab:  Solving for Ux, Initial residual = 0.0410529, Final residual = 0.00242867, No Iterations 2
DILUPBiCGStab:  Solving for Uy, Initial residual = 0.0402996, Final residual = 0.00275566, No Iterations 2
DILUPBiCGStab:  Solving for Uz, Initial residual = 0.0353527, Final residual = 0.0023512, No Iterations 2
GAMG:  Solving for p, Initial residual = 0.375545, Final residual = 0.020105, No Iterations 3
time step continuity errors : sum local = 9.36981e-05, global = 1.08918e-05, cumulative = -0.000163016
ExecutionTime = 41.1556 s  ClockTime = 41 s

Time = 60s

DILUPBiCGStab:  Solving for Ux, Initial residual = 0.0587521, Final residual = 0.00304895, No Iterations 2
DILUPBiCGStab:  Solving for Uy, Initial residual = 0.0430086, Final residual = 0.00287213, No Iterations 2
DILUPBiCGStab:  Solving for Uz, Initial residual = 0.0372058, Final residual = 0.00245967, No Iterations 2
GAMG:  Solving for p, Initial residual = 0.225668, Final residual = 0.00961433, No Iterations 3
time step continuity errors : sum local = 8.11709e-05, global = -1.25751e-05, cumulative = -0.000175591
ExecutionTime = 41.8368 s  ClockTime = 42 s

Time = 61s

DILUPBiCGStab:  Solving for Ux, Initial residual = 0.0591276, Final residual = 0.00300698, No Iterations 2
DILUPBiCGStab:  Solving for Uy, Initial residual = 0.0415258, Final residual = 0.00273406, No Iterations 2
DILUPBiCGStab:  Solving for Uz, Initial residual = 0.0345249, Final residual = 0.00224753, No Iterations 2
GAMG:  Solving for p, Initial residual = 0.218258, Final residual = 0.0214222, No Iterations 2
time step continuity errors : sum local = 0.000192062, global = 1.02116e-05, cumulative = -0.00016538
ExecutionTime = 42.477 s  ClockTime = 43 s

Time = 62s

DILUPBiCGStab:  Solving for Ux, Initial residual = 0.0458109, Final residual = 0.00246932, No Iterations 2
DILUPBiCGStab:  Solving for Uy, Initial residual = 0.0442477, Final residual = 0.00282445, No Iterations 2
DILUPBiCGStab:  Solving for Uz, Initial residual = 0.0351108, Final residual = 0.00223511, No Iterations 2
GAMG:  Solving for p, Initial residual = 0.251991, Final residual = 0.00729277, No Iterations 3
time step continuity errors : sum local = 5.36644e-05, global = -8.24618e-06, cumulative = -0.000173626
ExecutionTime = 43.1545 s  ClockTime = 43 s

Time = 63s

DILUPBiCGStab:  Solving for Ux, Initial residual = 0.028731, Final residual = 0.00182781, No Iterations 2
DILUPBiCGStab:  Solving for Uy, Initial residual = 0.0415004, Final residual = 0.00268897, No Iterations 2
DILUPBiCGStab:  Solving for Uz, Initial residual = 0.0341056, Final residual = 0.00218318, No Iterations 2
GAMG:  Solving for p, Initial residual = 0.338995, Final residual = 0.015158, No Iterations 3
time step continuity errors : sum local = 7.92479e-05, global = -6.65578e-06, cumulative = -0.000180282
ExecutionTime = 43.8309 s  ClockTime = 44 s

Time = 64s

DILUPBiCGStab:  Solving for Ux, Initial residual = 0.0233517, Final residual = 0.00158179, No Iterations 2
DILUPBiCGStab:  Solving for Uy, Initial residual = 0.0359236, Final residual = 0.0024102, No Iterations 2
DILUPBiCGStab:  Solving for Uz, Initial residual = 0.0313973, Final residual = 0.00202081, No Iterations 2
GAMG:  Solving for p, Initial residual = 0.402477, Final residual = 0.0371438, No Iterations 2
time step continuity errors : sum local = 0.000160545, global = -3.97349e-06, cumulative = -0.000184255
ExecutionTime = 44.4756 s  ClockTime = 45 s

Time = 65s

DILUPBiCGStab:  Solving for Ux, Initial residual = 0.0247589, Final residual = 0.00159765, No Iterations 2
DILUPBiCGStab:  Solving for Uy, Initial residual = 0.034013, Final residual = 0.00230282, No Iterations 2
DILUPBiCGStab:  Solving for Uz, Initial residual = 0.0291954, Final residual = 0.00185111, No Iterations 2
GAMG:  Solving for p, Initial residual = 0.331321, Final residual = 0.00918083, No Iterations 3
time step continuity errors : sum local = 4.62078e-05, global = 6.86991e-06, cumulative = -0.000177385
ExecutionTime = 45.1534 s  ClockTime = 45 s

Time = 66s

DILUPBiCGStab:  Solving for Ux, Initial residual = 0.034162, Final residual = 0.00190871, No Iterations 2
DILUPBiCGStab:  Solving for Uy, Initial residual = 0.0361551, Final residual = 0.00239347, No Iterations 2
DILUPBiCGStab:  Solving for Uz, Initial residual = 0.029316, Final residual = 0.00185002, No Iterations 2
GAMG:  Solving for p, Initial residual = 0.247345, Final residual = 0.0218438, No Iterations 2
time step continuity errors : sum local = 0.000146471, global = -7.8366e-08, cumulative = -0.000177464
ExecutionTime = 45.7932 s  ClockTime = 46 s

Time = 67s

DILUPBiCGStab:  Solving for Ux, Initial residual = 0.0394205, Final residual = 0.00204299, No Iterations 2
DILUPBiCGStab:  Solving for Uy, Initial residual = 0.035887, Final residual = 0.00235038, No Iterations 2
DILUPBiCGStab:  Solving for Uz, Initial residual = 0.0285592, Final residual = 0.00179107, No Iterations 2
GAMG:  Solving for p, Initial residual = 0.214672, Final residual = 0.0179342, No Iterations 2
time step continuity errors : sum local = 0.0001425, global = 4.58339e-06, cumulative = -0.00017288
ExecutionTime = 46.4344 s  ClockTime = 47 s

Time = 68s

DILUPBiCGStab:  Solving for Ux, Initial residual = 0.0357641, Final residual = 0.00188685, No Iterations 2
DILUPBiCGStab:  Solving for Uy, Initial residual = 0.0359742, Final residual = 0.00232642, No Iterations 2
DILUPBiCGStab:  Solving for Uz, Initial residual = 0.0281445, Final residual = 0.00174755, No Iterations 2
GAMG:  Solving for p, Initial residual = 0.217206, Final residual = 0.0195046, No Iterations 2
time step continuity errors : sum local = 0.000150363, global = 8.53952e-06, cumulative = -0.000164341
ExecutionTime = 47.0751 s  ClockTime = 47 s

Time = 69s

DILUPBiCGStab:  Solving for Ux, Initial residual = 0.02724, Final residual = 0.00158725, No Iterations 2
DILUPBiCGStab:  Solving for Uy, Initial residual = 0.0354887, Final residual = 0.00229506, No Iterations 2
DILUPBiCGStab:  Solving for Uz, Initial residual = 0.0277177, Final residual = 0.00171562, No Iterations 2
GAMG:  Solving for p, Initial residual = 0.256247, Final residual = 0.0229701, No Iterations 2
time step continuity errors : sum local = 0.0001465, global = 9.27156e-06, cumulative = -0.000155069
ExecutionTime = 47.7172 s  ClockTime = 48 s

Time = 70s

DILUPBiCGStab:  Solving for Ux, Initial residual = 0.0213692, Final residual = 0.00135856, No Iterations 2
DILUPBiCGStab:  Solving for Uy, Initial residual = 0.0326847, Final residual = 0.00214557, No Iterations 2
DILUPBiCGStab:  Solving for Uz, Initial residual = 0.0264616, Final residual = 0.00163816, No Iterations 2
GAMG:  Solving for p, Initial residual = 0.323513, Final residual = 0.0230282, No Iterations 2
time step continuity errors : sum local = 0.000117385, global = -2.34799e-06, cumulative = -0.000157417
ExecutionTime = 48.3583 s  ClockTime = 49 s

Time = 71s

DILUPBiCGStab:  Solving for Ux, Initial residual = 0.0186806, Final residual = 0.00125456, No Iterations 2
DILUPBiCGStab:  Solving for Uy, Initial residual = 0.0309591, Final residual = 0.00205706, No Iterations 2
DILUPBiCGStab:  Solving for Uz, Initial residual = 0.0254364, Final residual = 0.00158694, No Iterations 2
GAMG:  Solving for p, Initial residual = 0.325948, Final residual = 0.0236026, No Iterations 2
time step continuity errors : sum local = 0.000115469, global = 2.96662e-06, cumulative = -0.000154451
ExecutionTime = 48.9984 s  ClockTime = 49 s

Time = 72s

DILUPBiCGStab:  Solving for Ux, Initial residual = 0.0186718, Final residual = 0.0012378, No Iterations 2
DILUPBiCGStab:  Solving for Uy, Initial residual = 0.0327529, Final residual = 0.00214911, No Iterations 2
DILUPBiCGStab:  Solving for Uz, Initial residual = 0.0252719, Final residual = 0.00157753, No Iterations 2
GAMG:  Solving for p, Initial residual = 0.282335, Final residual = 0.0205404, No Iterations 2
time step continuity errors : sum local = 0.000111571, global = 2.81964e-06, cumulative = -0.000151631
ExecutionTime = 49.6394 s  ClockTime = 50 s

Time = 73s

DILUPBiCGStab:  Solving for Ux, Initial residual = 0.023623, Final residual = 0.00137609, No Iterations 2
DILUPBiCGStab:  Solving for Uy, Initial residual = 0.0341142, Final residual = 0.00220829, No Iterations 2
DILUPBiCGStab:  Solving for Uz, Initial residual = 0.0247901, Final residual = 0.0015525, No Iterations 2
GAMG:  Solving for p, Initial residual = 0.233976, Final residual = 0.0156736, No Iterations 2
time step continuity errors : sum local = 0.000102846, global = 5.26691e-06, cumulative = -0.000146364
ExecutionTime = 50.278 s  ClockTime = 50 s

Time = 74s

DILUPBiCGStab:  Solving for Ux, Initial residual = 0.0252709, Final residual = 0.00140572, No Iterations 2
DILUPBiCGStab:  Solving for Uy, Initial residual = 0.0329705, Final residual = 0.00215871, No Iterations 2
DILUPBiCGStab:  Solving for Uz, Initial residual = 0.0237778, Final residual = 0.00149786, No Iterations 2
GAMG:  Solving for p, Initial residual = 0.214573, Final residual = 0.0144253, No Iterations 2
time step continuity errors : sum local = 0.0001033, global = 1.54368e-06, cumulative = -0.00014482
ExecutionTime = 50.9186 s  ClockTime = 51 s

Time = 75s

DILUPBiCGStab:  Solving for Ux, Initial residual = 0.0235902, Final residual = 0.00133524, No Iterations 2
DILUPBiCGStab:  Solving for Uy, Initial residual = 0.0323824, Final residual = 0.00211432, No Iterations 2
DILUPBiCGStab:  Solving for Uz, Initial residual = 0.0234799, Final residual = 0.0014816, No Iterations 2
GAMG:  Solving for p, Initial residual = 0.206732, Final residual = 0.0179772, No Iterations 2
time step continuity errors : sum local = 0.00013221, global = 5.33238e-06, cumulative = -0.000139488
ExecutionTime = 51.5586 s  ClockTime = 52 s

Time = 76s

DILUPBiCGStab:  Solving for Ux, Initial residual = 0.0211091, Final residual = 0.00123111, No Iterations 2
DILUPBiCGStab:  Solving for Uy, Initial residual = 0.0328663, Final residual = 0.00213713, No Iterations 2
DILUPBiCGStab:  Solving for Uz, Initial residual = 0.0234269, Final residual = 0.0014959, No Iterations 2
GAMG:  Solving for p, Initial residual = 0.21887, Final residual = 0.0166743, No Iterations 2
time step continuity errors : sum local = 0.000115394, global = 3.52727e-06, cumulative = -0.000135961
ExecutionTime = 52.1993 s  ClockTime = 52 s

Time = 77s

DILUPBiCGStab:  Solving for Ux, Initial residual = 0.0182387, Final residual = 0.0011303, No Iterations 2
DILUPBiCGStab:  Solving for Uy, Initial residual = 0.0333057, Final residual = 0.00214524, No Iterations 2
DILUPBiCGStab:  Solving for Uz, Initial residual = 0.023142, Final residual = 0.00149095, No Iterations 2
GAMG:  Solving for p, Initial residual = 0.246334, Final residual = 0.0152461, No Iterations 2
time step continuity errors : sum local = 9.36667e-05, global = 4.31286e-07, cumulative = -0.000135529
ExecutionTime = 52.8383 s  ClockTime = 53 s

Time = 78s

DILUPBiCGStab:  Solving for Ux, Initial residual = 0.01599, Final residual = 0.00103293, No Iterations 2
DILUPBiCGStab:  Solving for Uy, Initial residual = 0.0335853, Final residual = 0.00211141, No Iterations 2
DILUPBiCGStab:  Solving for Uz, Initial residual = 0.022697, Final residual = 0.00147191, No Iterations 2
GAMG:  Solving for p, Initial residual = 0.265579, Final residual = 0.0151366, No Iterations 2
time step continuity errors : sum local = 8.52932e-05, global = 1.45876e-06, cumulative = -0.000134071
ExecutionTime = 53.4777 s  ClockTime = 54 s

Time = 79s

DILUPBiCGStab:  Solving for Ux, Initial residual = 0.014668, Final residual = 0.000940483, No Iterations 2
DILUPBiCGStab:  Solving for Uy, Initial residual = 0.033935, Final residual = 0.00209988, No Iterations 2
DILUPBiCGStab:  Solving for Uz, Initial residual = 0.0223743, Final residual = 0.00147286, No Iterations 2
GAMG:  Solving for p, Initial residual = 0.264487, Final residual = 0.0155554, No Iterations 2
time step continuity errors : sum local = 8.63422e-05, global = 3.11857e-06, cumulative = -0.000130952
ExecutionTime = 54.1182 s  ClockTime = 54 s

Time = 80s

DILUPBiCGStab:  Solving for Ux, Initial residual = 0.0150505, Final residual = 0.000920765, No Iterations 2
DILUPBiCGStab:  Solving for Uy, Initial residual = 0.0340409, Final residual = 0.00211067, No Iterations 2
DILUPBiCGStab:  Solving for Uz, Initial residual = 0.0222666, Final residual = 0.00149292, No Iterations 2
GAMG:  Solving for p, Initial residual = 0.251919, Final residual = 0.01314, No Iterations 2
time step continuity errors : sum local = 7.56627e-05, global = 1.20187e-06, cumulative = -0.00012975
ExecutionTime = 54.7564 s  ClockTime = 55 s

Time = 81s

DILUPBiCGStab:  Solving for Ux, Initial residual = 0.015019, Final residual = 0.000899224, No Iterations 2
DILUPBiCGStab:  Solving for Uy, Initial residual = 0.0332951, Final residual = 0.00209323, No Iterations 2
DILUPBiCGStab:  Solving for Uz, Initial residual = 0.0224983, Final residual = 0.00154199, No Iterations 2
GAMG:  Solving for p, Initial residual = 0.239294, Final residual = 0.012475, No Iterations 2
time step continuity errors : sum local = 7.43559e-05, global = -4.78611e-07, cumulative = -0.000130229
ExecutionTime = 55.3968 s  ClockTime = 56 s

Time = 82s

DILUPBiCGStab:  Solving for Ux, Initial residual = 0.0140943, Final residual = 0.00084274, No Iterations 2
DILUPBiCGStab:  Solving for Uy, Initial residual = 0.0328766, Final residual = 0.00212792, No Iterations 2
DILUPBiCGStab:  Solving for Uz, Initial residual = 0.023203, Final residual = 0.00165526, No Iterations 2
GAMG:  Solving for p, Initial residual = 0.232487, Final residual = 0.0146641, No Iterations 2
time step continuity errors : sum local = 8.76944e-05, global = -1.30516e-07, cumulative = -0.000130359
ExecutionTime = 56.0397 s  ClockTime = 56 s

Time = 83s

DILUPBiCGStab:  Solving for Ux, Initial residual = 0.0129216, Final residual = 0.00078709, No Iterations 2
DILUPBiCGStab:  Solving for Uy, Initial residual = 0.0332902, Final residual = 0.00227565, No Iterations 2
DILUPBiCGStab:  Solving for Uz, Initial residual = 0.0239464, Final residual = 0.00177928, No Iterations 2
GAMG:  Solving for p, Initial residual = 0.233627, Final residual = 0.0162769, No Iterations 2
time step continuity errors : sum local = 9.37492e-05, global = 4.37007e-06, cumulative = -0.000125989
ExecutionTime = 56.6809 s  ClockTime = 57 s

Time = 84s

DILUPBiCGStab:  Solving for Ux, Initial residual = 0.0124039, Final residual = 0.000756071, No Iterations 2
DILUPBiCGStab:  Solving for Uy, Initial residual = 0.0342534, Final residual = 0.00250036, No Iterations 2
DILUPBiCGStab:  Solving for Uz, Initial residual = 0.0238539, Final residual = 0.00193618, No Iterations 2
GAMG:  Solving for p, Initial residual = 0.249103, Final residual = 0.0171951, No Iterations 2
time step continuity errors : sum local = 9.02738e-05, global = 3.83496e-06, cumulative = -0.000122154
ExecutionTime = 57.3222 s  ClockTime = 58 s

Time = 85s

DILUPBiCGStab:  Solving for Ux, Initial residual = 0.0120088, Final residual = 0.000744742, No Iterations 2
DILUPBiCGStab:  Solving for Uy, Initial residual = 0.0342333, Final residual = 0.00267618, No Iterations 2
DILUPBiCGStab:  Solving for Uz, Initial residual = 0.0231495, Final residual = 0.0020348, No Iterations 2
GAMG:  Solving for p, Initial residual = 0.275717, Final residual = 0.0176679, No Iterations 2
time step continuity errors : sum local = 8.15455e-05, global = -6.78851e-08, cumulative = -0.000122222
ExecutionTime = 57.9615 s  ClockTime = 58 s

Time = 86s

DILUPBiCGStab:  Solving for Ux, Initial residual = 0.0113555, Final residual = 0.000723759, No Iterations 2
DILUPBiCGStab:  Solving for Uy, Initial residual = 0.033588, Final residual = 0.00265564, No Iterations 2
DILUPBiCGStab:  Solving for Uz, Initial residual = 0.0226298, Final residual = 0.00206318, No Iterations 2
GAMG:  Solving for p, Initial residual = 0.300487, Final residual = 0.0167795, No Iterations 2
time step continuity errors : sum local = 6.89541e-05, global = 8.95796e-07, cumulative = -0.000121326
ExecutionTime = 58.6023 s  ClockTime = 59 s

Time = 87s

DILUPBiCGStab:  Solving for Ux, Initial residual = 0.0106519, Final residual = 0.000686754, No Iterations 2
DILUPBiCGStab:  Solving for Uy, Initial residual = 0.0331226, Final residual = 0.00254634, No Iterations 2
DILUPBiCGStab:  Solving for Uz, Initial residual = 0.0224723, Final residual = 0.00212986, No Iterations 2
GAMG:  Solving for p, Initial residual = 0.310685, Final residual = 0.0149464, No Iterations 2
time step continuity errors : sum local = 5.7719e-05, global = 1.21223e-06, cumulative = -0.000120114
ExecutionTime = 59.2427 s  ClockTime = 59 s

Time = 88s

DILUPBiCGStab:  Solving for Ux, Initial residual = 0.010459, Final residual = 0.000652469, No Iterations 2
DILUPBiCGStab:  Solving for Uy, Initial residual = 0.032522, Final residual = 0.00241798, No Iterations 2
DILUPBiCGStab:  Solving for Uz, Initial residual = 0.022191, Final residual = 0.0020941, No Iterations 2
GAMG:  Solving for p, Initial residual = 0.308901, Final residual = 0.0139821, No Iterations 2
time step continuity errors : sum local = 5.29556e-05, global = -1.73765e-06, cumulative = -0.000121852
ExecutionTime = 59.8859 s  ClockTime = 60 s

Time = 89s

DILUPBiCGStab:  Solving for Ux, Initial residual = 0.0103999, Final residual = 0.000638935, No Iterations 2
DILUPBiCGStab:  Solving for Uy, Initial residual = 0.031742, Final residual = 0.00235878, No Iterations 2
DILUPBiCGStab:  Solving for Uz, Initial residual = 0.0217753, Final residual = 0.00199001, No Iterations 2
GAMG:  Solving for p, Initial residual = 0.30734, Final residual = 0.0150745, No Iterations 2
time step continuity errors : sum local = 5.62762e-05, global = -4.41855e-06, cumulative = -0.00012627
ExecutionTime = 60.5255 s  ClockTime = 61 s

Time = 90s

DILUPBiCGStab:  Solving for Ux, Initial residual = 0.0105612, Final residual = 0.000646839, No Iterations 2
DILUPBiCGStab:  Solving for Uy, Initial residual = 0.0310344, Final residual = 0.00226293, No Iterations 2
DILUPBiCGStab:  Solving for Uz, Initial residual = 0.0215045, Final residual = 0.00179159, No Iterations 2
GAMG:  Solving for p, Initial residual = 0.31276, Final residual = 0.0186601, No Iterations 2
time step continuity errors : sum local = 6.76956e-05, global = -1.49102e-05, cumulative = -0.000141181
ExecutionTime = 61.1652 s  ClockTime = 61 s

Time = 91s

DILUPBiCGStab:  Solving for Ux, Initial residual = 0.0109976, Final residual = 0.000653415, No Iterations 2
DILUPBiCGStab:  Solving for Uy, Initial residual = 0.0305913, Final residual = 0.00211641, No Iterations 2
DILUPBiCGStab:  Solving for Uz, Initial residual = 0.0212614, Final residual = 0.00166329, No Iterations 2
GAMG:  Solving for p, Initial residual = 0.297976, Final residual = 0.0209609, No Iterations 2
time step continuity errors : sum local = 8.03106e-05, global = -1.68778e-05, cumulative = -0.000158058
ExecutionTime = 61.8056 s  ClockTime = 62 s

Time = 92s

DILUPBiCGStab:  Solving for Ux, Initial residual = 0.0123569, Final residual = 0.000687351, No Iterations 2
DILUPBiCGStab:  Solving for Uy, Initial residual = 0.0310394, Final residual = 0.00205852, No Iterations 2
DILUPBiCGStab:  Solving for Uz, Initial residual = 0.0211118, Final residual = 0.00156796, No Iterations 2
GAMG:  Solving for p, Initial residual = 0.278152, Final residual = 0.0172995, No Iterations 2
time step continuity errors : sum local = 7.32268e-05, global = 1.15688e-06, cumulative = -0.000156901
ExecutionTime = 62.4453 s  ClockTime = 63 s

Time = 93s

DILUPBiCGStab:  Solving for Ux, Initial residual = 0.0143824, Final residual = 0.000760239, No Iterations 2
DILUPBiCGStab:  Solving for Uy, Initial residual = 0.0318649, Final residual = 0.00204174, No Iterations 2
DILUPBiCGStab:  Solving for Uz, Initial residual = 0.0210065, Final residual = 0.00145052, No Iterations 2
GAMG:  Solving for p, Initial residual = 0.259936, Final residual = 0.0110337, No Iterations 2
time step continuity errors : sum local = 5.24306e-05, global = -9.11198e-07, cumulative = -0.000157813
ExecutionTime = 63.0851 s  ClockTime = 63 s

Time = 94s

DILUPBiCGStab:  Solving for Ux, Initial residual = 0.0147172, Final residual = 0.000771902, No Iterations 2
DILUPBiCGStab:  Solving for Uy, Initial residual = 0.0319172, Final residual = 0.00208042, No Iterations 2
DILUPBiCGStab:  Solving for Uz, Initial residual = 0.0206138, Final residual = 0.00135637, No Iterations 2
GAMG:  Solving for p, Initial residual = 0.253154, Final residual = 0.0142953, No Iterations 2
time step continuity errors : sum local = 7.08395e-05, global = -4.58917e-06, cumulative = -0.000162402
ExecutionTime = 63.7236 s  ClockTime = 64 s

Time = 95s

DILUPBiCGStab:  Solving for Ux, Initial residual = 0.0140252, Final residual = 0.000753917, No Iterations 2
DILUPBiCGStab:  Solving for Uy, Initial residual = 0.0319447, Final residual = 0.00210856, No Iterations 2
DILUPBiCGStab:  Solving for Uz, Initial residual = 0.0205298, Final residual = 0.00130433, No Iterations 2
GAMG:  Solving for p, Initial residual = 0.255522, Final residual = 0.0160557, No Iterations 2
time step continuity errors : sum local = 7.77241e-05, global = 5.18861e-07, cumulative = -0.000161883
ExecutionTime = 64.3684 s  ClockTime = 65 s

Time = 96s

DILUPBiCGStab:  Solving for Ux, Initial residual = 0.0125393, Final residual = 0.000711636, No Iterations 2
DILUPBiCGStab:  Solving for Uy, Initial residual = 0.0315261, Final residual = 0.00213819, No Iterations 2
DILUPBiCGStab:  Solving for Uz, Initial residual = 0.0205057, Final residual = 0.00131028, No Iterations 2
GAMG:  Solving for p, Initial residual = 0.273181, Final residual = 0.0145678, No Iterations 2
time step continuity errors : sum local = 6.48705e-05, global = 2.54457e-06, cumulative = -0.000159338
ExecutionTime = 65.0084 s  ClockTime = 65 s

Time = 97s

DILUPBiCGStab:  Solving for Ux, Initial residual = 0.0119793, Final residual = 0.000686503, No Iterations 2
DILUPBiCGStab:  Solving for Uy, Initial residual = 0.0308111, Final residual = 0.00209188, No Iterations 2
DILUPBiCGStab:  Solving for Uz, Initial residual = 0.0202439, Final residual = 0.00130029, No Iterations 2
GAMG:  Solving for p, Initial residual = 0.289452, Final residual = 0.0122705, No Iterations 2
time step continuity errors : sum local = 5.07203e-05, global = 2.24462e-07, cumulative = -0.000159114
ExecutionTime = 65.6492 s  ClockTime = 66 s

Time = 98s

DILUPBiCGStab:  Solving for Ux, Initial residual = 0.0116295, Final residual = 0.000672578, No Iterations 2
DILUPBiCGStab:  Solving for Uy, Initial residual = 0.029886, Final residual = 0.00198198, No Iterations 2
DILUPBiCGStab:  Solving for Uz, Initial residual = 0.0197951, Final residual = 0.00129398, No Iterations 2
GAMG:  Solving for p, Initial residual = 0.287116, Final residual = 0.0156779, No Iterations 2
time step continuity errors : sum local = 6.33211e-05, global = 3.25846e-06, cumulative = -0.000155855
ExecutionTime = 66.2913 s  ClockTime = 66 s

Time = 99s

DILUPBiCGStab:  Solving for Ux, Initial residual = 0.0112623, Final residual = 0.000663683, No Iterations 2
DILUPBiCGStab:  Solving for Uy, Initial residual = 0.0293549, Final residual = 0.00192298, No Iterations 2
DILUPBiCGStab:  Solving for Uz, Initial residual = 0.0196438, Final residual = 0.00130845, No Iterations 2
GAMG:  Solving for p, Initial residual = 0.281025, Final residual = 0.0176281, No Iterations 2
time step continuity errors : sum local = 7.06408e-05, global = 5.48331e-06, cumulative = -0.000150372
ExecutionTime = 66.9315 s  ClockTime = 67 s

Time = 100s

DILUPBiCGStab:  Solving for Ux, Initial residual = 0.0111775, Final residual = 0.000657461, No Iterations 2
DILUPBiCGStab:  Solving for Uy, Initial residual = 0.0292168, Final residual = 0.00187603, No Iterations 2
DILUPBiCGStab:  Solving for Uz, Initial residual = 0.0196889, Final residual = 0.00134258, No Iterations 2
GAMG:  Solving for p, Initial residual = 0.27433, Final residual = 0.0143228, No Iterations 2
time step continuity errors : sum local = 5.69429e-05, global = 1.4495e-06, cumulative = -0.000148923
ExecutionTime = 67.5721 s  ClockTime = 68 s

Time = 101s

DILUPBiCGStab:  Solving for Ux, Initial residual = 0.0118325, Final residual = 0.000674171, No Iterations 2
DILUPBiCGStab:  Solving for Uy, Initial residual = 0.0292152, Final residual = 0.00189671, No Iterations 2
DILUPBiCGStab:  Solving for Uz, Initial residual = 0.0197095, Final residual = 0.00140339, No Iterations 2
GAMG:  Solving for p, Initial residual = 0.269003, Final residual = 0.0112082, No Iterations 2
time step continuity errors : sum local = 4.41902e-05, global = 2.07251e-06, cumulative = -0.00014685
ExecutionTime = 68.2124 s  ClockTime = 68 s

Time = 102s

DILUPBiCGStab:  Solving for Ux, Initial residual = 0.0118906, Final residual = 0.000665154, No Iterations 2
DILUPBiCGStab:  Solving for Uy, Initial residual = 0.0285991, Final residual = 0.00187743, No Iterations 2
DILUPBiCGStab:  Solving for Uz, Initial residual = 0.019466, Final residual = 0.00140036, No Iterations 2
GAMG:  Solving for p, Initial residual = 0.266812, Final residual = 0.0117862, No Iterations 2
time step continuity errors : sum local = 4.5395e-05, global = 3.38961e-06, cumulative = -0.000143461
ExecutionTime = 68.853 s  ClockTime = 69 s

Time = 103s

DILUPBiCGStab:  Solving for Ux, Initial residual = 0.0116171, Final residual = 0.00065916, No Iterations 2
DILUPBiCGStab:  Solving for Uy, Initial residual = 0.028013, Final residual = 0.00186765, No Iterations 2
DILUPBiCGStab:  Solving for Uz, Initial residual = 0.0192973, Final residual = 0.00138974, No Iterations 2
GAMG:  Solving for p, Initial residual = 0.263937, Final residual = 0.0140308, No Iterations 2
time step continuity errors : sum local = 5.28978e-05, global = 5.32243e-06, cumulative = -0.000138138
ExecutionTime = 69.4931 s  ClockTime = 70 s

Time = 104s

DILUPBiCGStab:  Solving for Ux, Initial residual = 0.0109219, Final residual = 0.000635064, No Iterations 2
DILUPBiCGStab:  Solving for Uy, Initial residual = 0.0275716, Final residual = 0.00180001, No Iterations 2
DILUPBiCGStab:  Solving for Uz, Initial residual = 0.019096, Final residual = 0.00135964, No Iterations 2
GAMG:  Solving for p, Initial residual = 0.260747, Final residual = 0.0132457, No Iterations 2
time step continuity errors : sum local = 4.89692e-05, global = 3.72329e-06, cumulative = -0.000134415
ExecutionTime = 70.1337 s  ClockTime = 70 s

Time = 105s

DILUPBiCGStab:  Solving for Ux, Initial residual = 0.0106513, Final residual = 0.000619134, No Iterations 2
DILUPBiCGStab:  Solving for Uy, Initial residual = 0.0274801, Final residual = 0.00176846, No Iterations 2
DILUPBiCGStab:  Solving for Uz, Initial residual = 0.018806, Final residual = 0.0013072, No Iterations 2
GAMG:  Solving for p, Initial residual = 0.258264, Final residual = 0.0103589, No Iterations 2
time step continuity errors : sum local = 3.7749e-05, global = 7.49985e-07, cumulative = -0.000133665
ExecutionTime = 70.774 s  ClockTime = 71 s

Time = 106s

DILUPBiCGStab:  Solving for Ux, Initial residual = 0.0105044, Final residual = 0.00060117, No Iterations 2
DILUPBiCGStab:  Solving for Uy, Initial residual = 0.0271227, Final residual = 0.00173668, No Iterations 2
DILUPBiCGStab:  Solving for Uz, Initial residual = 0.0183897, Final residual = 0.00125011, No Iterations 2
GAMG:  Solving for p, Initial residual = 0.257641, Final residual = 0.0106766, No Iterations 2
time step continuity errors : sum local = 3.79478e-05, global = -2.97831e-08, cumulative = -0.000133695
ExecutionTime = 71.4145 s  ClockTime = 72 s

Time = 107s

DILUPBiCGStab:  Solving for Ux, Initial residual = 0.0103147, Final residual = 0.000585523, No Iterations 2
DILUPBiCGStab:  Solving for Uy, Initial residual = 0.0267249, Final residual = 0.00168135, No Iterations 2
DILUPBiCGStab:  Solving for Uz, Initial residual = 0.0180881, Final residual = 0.00120238, No Iterations 2
GAMG:  Solving for p, Initial residual = 0.255987, Final residual = 0.0119088, No Iterations 2
time step continuity errors : sum local = 4.15647e-05, global = 8.02451e-07, cumulative = -0.000132892
ExecutionTime = 72.0534 s  ClockTime = 72 s

Time = 108s

DILUPBiCGStab:  Solving for Ux, Initial residual = 0.0100765, Final residual = 0.000576598, No Iterations 2
DILUPBiCGStab:  Solving for Uy, Initial residual = 0.0263555, Final residual = 0.00167512, No Iterations 2
DILUPBiCGStab:  Solving for Uz, Initial residual = 0.0180414, Final residual = 0.00117357, No Iterations 2
GAMG:  Solving for p, Initial residual = 0.253396, Final residual = 0.0126516, No Iterations 2
time step continuity errors : sum local = 4.35978e-05, global = 1.60542e-06, cumulative = -0.000131287
ExecutionTime = 72.691 s  ClockTime = 73 s

Time = 109s

DILUPBiCGStab:  Solving for Ux, Initial residual = 0.00992416, Final residual = 0.00056329, No Iterations 2
DILUPBiCGStab:  Solving for Uy, Initial residual = 0.0260834, Final residual = 0.00166568, No Iterations 2
DILUPBiCGStab:  Solving for Uz, Initial residual = 0.0179806, Final residual = 0.00114895, No Iterations 2
GAMG:  Solving for p, Initial residual = 0.251623, Final residual = 0.0105603, No Iterations 2
time step continuity errors : sum local = 3.59664e-05, global = 1.27e-07, cumulative = -0.00013116
ExecutionTime = 73.3281 s  ClockTime = 74 s

Time = 110s

DILUPBiCGStab:  Solving for Ux, Initial residual = 0.009892, Final residual = 0.000552901, No Iterations 2
DILUPBiCGStab:  Solving for Uy, Initial residual = 0.0259218, Final residual = 0.0016354, No Iterations 2
DILUPBiCGStab:  Solving for Uz, Initial residual = 0.0177202, Final residual = 0.00110915, No Iterations 2
GAMG:  Solving for p, Initial residual = 0.250335, Final residual = 0.00953855, No Iterations 2
time step continuity errors : sum local = 3.21262e-05, global = 1.01957e-06, cumulative = -0.00013014
ExecutionTime = 73.9683 s  ClockTime = 74 s

Time = 111s

DILUPBiCGStab:  Solving for Ux, Initial residual = 0.00981047, Final residual = 0.000540856, No Iterations 2
DILUPBiCGStab:  Solving for Uy, Initial residual = 0.0257614, Final residual = 0.00159404, No Iterations 2
DILUPBiCGStab:  Solving for Uz, Initial residual = 0.0173578, Final residual = 0.00105031, No Iterations 2
GAMG:  Solving for p, Initial residual = 0.248574, Final residual = 0.0102099, No Iterations 2
time step continuity errors : sum local = 3.39693e-05, global = 1.22813e-06, cumulative = -0.000128912
ExecutionTime = 74.6082 s  ClockTime = 75 s

Time = 112s

DILUPBiCGStab:  Solving for Ux, Initial residual = 0.0097638, Final residual = 0.000539215, No Iterations 2
DILUPBiCGStab:  Solving for Uy, Initial residual = 0.0256749, Final residual = 0.00157819, No Iterations 2
DILUPBiCGStab:  Solving for Uz, Initial residual = 0.017181, Final residual = 0.00101749, No Iterations 2
GAMG:  Solving for p, Initial residual = 0.249174, Final residual = 0.0117588, No Iterations 2
time step continuity errors : sum local = 3.85912e-05, global = 7.00285e-07, cumulative = -0.000128212
ExecutionTime = 75.2487 s  ClockTime = 75 s

Time = 113s

DILUPBiCGStab:  Solving for Ux, Initial residual = 0.0094014, Final residual = 0.00053063, No Iterations 2
DILUPBiCGStab:  Solving for Uy, Initial residual = 0.0254568, Final residual = 0.00159965, No Iterations 2
DILUPBiCGStab:  Solving for Uz, Initial residual = 0.0172003, Final residual = 0.00100489, No Iterations 2
GAMG:  Solving for p, Initial residual = 0.255276, Final residual = 0.0123152, No Iterations 2
time step continuity errors : sum local = 3.91941e-05, global = 8.17446e-07, cumulative = -0.000127394
ExecutionTime = 75.889 s  ClockTime = 76 s

Time = 114s

DILUPBiCGStab:  Solving for Ux, Initial residual = 0.00882711, Final residual = 0.000511039, No Iterations 2
DILUPBiCGStab:  Solving for Uy, Initial residual = 0.0251444, Final residual = 0.00157501, No Iterations 2
DILUPBiCGStab:  Solving for Uz, Initial residual = 0.0172854, Final residual = 0.000993151, No Iterations 2
GAMG:  Solving for p, Initial residual = 0.263052, Final residual = 0.0115489, No Iterations 2
time step continuity errors : sum local = 3.53906e-05, global = 1.12628e-06, cumulative = -0.000126268
ExecutionTime = 76.5299 s  ClockTime = 77 s

Time = 115s

DILUPBiCGStab:  Solving for Ux, Initial residual = 0.00848232, Final residual = 0.000493212, No Iterations 2
DILUPBiCGStab:  Solving for Uy, Initial residual = 0.0248277, Final residual = 0.00152251, No Iterations 2
DILUPBiCGStab:  Solving for Uz, Initial residual = 0.0173247, Final residual = 0.000982457, No Iterations 2
GAMG:  Solving for p, Initial residual = 0.268488, Final residual = 0.0116944, No Iterations 2
time step continuity errors : sum local = 3.4877e-05, global = 1.14598e-06, cumulative = -0.000125122
ExecutionTime = 77.1718 s  ClockTime = 77 s

Time = 116s

DILUPBiCGStab:  Solving for Ux, Initial residual = 0.00837433, Final residual = 0.000483988, No Iterations 2
DILUPBiCGStab:  Solving for Uy, Initial residual = 0.024539, Final residual = 0.00150725, No Iterations 2
DILUPBiCGStab:  Solving for Uz, Initial residual = 0.0173151, Final residual = 0.000973646, No Iterations 2
GAMG:  Solving for p, Initial residual = 0.262632, Final residual = 0.0120461, No Iterations 2
time step continuity errors : sum local = 3.64979e-05, global = 7.6348e-07, cumulative = -0.000124359
ExecutionTime = 77.8128 s  ClockTime = 78 s

Time = 117s

DILUPBiCGStab:  Solving for Ux, Initial residual = 0.00812113, Final residual = 0.000471829, No Iterations 2
DILUPBiCGStab:  Solving for Uy, Initial residual = 0.0242702, Final residual = 0.00149203, No Iterations 2
DILUPBiCGStab:  Solving for Uz, Initial residual = 0.0173452, Final residual = 0.00096701, No Iterations 2
GAMG:  Solving for p, Initial residual = 0.253374, Final residual = 0.0114781, No Iterations 2
time step continuity errors : sum local = 3.57881e-05, global = -1.70431e-07, cumulative = -0.000124529
ExecutionTime = 78.4569 s  ClockTime = 79 s

Time = 118s

DILUPBiCGStab:  Solving for Ux, Initial residual = 0.00771978, Final residual = 0.000452243, No Iterations 2
DILUPBiCGStab:  Solving for Uy, Initial residual = 0.023919, Final residual = 0.00145326, No Iterations 2
DILUPBiCGStab:  Solving for Uz, Initial residual = 0.0173888, Final residual = 0.000960802, No Iterations 2
GAMG:  Solving for p, Initial residual = 0.242943, Final residual = 0.00982981, No Iterations 2
time step continuity errors : sum local = 3.16653e-05, global = 9.85843e-08, cumulative = -0.00012443
ExecutionTime = 79.0967 s  ClockTime = 79 s

Time = 119s

DILUPBiCGStab:  Solving for Ux, Initial residual = 0.00740363, Final residual = 0.000435309, No Iterations 2
DILUPBiCGStab:  Solving for Uy, Initial residual = 0.0234844, Final residual = 0.00142149, No Iterations 2
DILUPBiCGStab:  Solving for Uz, Initial residual = 0.0173617, Final residual = 0.000950525, No Iterations 2
GAMG:  Solving for p, Initial residual = 0.23631, Final residual = 0.00905225, No Iterations 2
time step continuity errors : sum local = 2.96726e-05, global = 1.01074e-06, cumulative = -0.00012342
ExecutionTime = 79.7368 s  ClockTime = 80 s

Time = 120s

DILUPBiCGStab:  Solving for Ux, Initial residual = 0.00729002, Final residual = 0.000425291, No Iterations 2
DILUPBiCGStab:  Solving for Uy, Initial residual = 0.0229806, Final residual = 0.0013724, No Iterations 2
DILUPBiCGStab:  Solving for Uz, Initial residual = 0.0172138, Final residual = 0.000937073, No Iterations 2
GAMG:  Solving for p, Initial residual = 0.232183, Final residual = 0.00896612, No Iterations 2
time step continuity errors : sum local = 2.95127e-05, global = 1.27766e-06, cumulative = -0.000122142
ExecutionTime = 80.3766 s  ClockTime = 81 s

Time = 121s

DILUPBiCGStab:  Solving for Ux, Initial residual = 0.00725071, Final residual = 0.000421344, No Iterations 2
DILUPBiCGStab:  Solving for Uy, Initial residual = 0.0225022, Final residual = 0.00132489, No Iterations 2
DILUPBiCGStab:  Solving for Uz, Initial residual = 0.0170465, Final residual = 0.000923127, No Iterations 2
GAMG:  Solving for p, Initial residual = 0.228306, Final residual = 0.00882208, No Iterations 2
time step continuity errors : sum local = 2.90512e-05, global = 1.07119e-06, cumulative = -0.000121071
ExecutionTime = 81.0195 s  ClockTime = 81 s

Time = 122s

DILUPBiCGStab:  Solving for Ux, Initial residual = 0.00719649, Final residual = 0.000413851, No Iterations 2
DILUPBiCGStab:  Solving for Uy, Initial residual = 0.0220827, Final residual = 0.00128726, No Iterations 2
DILUPBiCGStab:  Solving for Uz, Initial residual = 0.0168954, Final residual = 0.000908636, No Iterations 2
GAMG:  Solving for p, Initial residual = 0.225545, Final residual = 0.00865294, No Iterations 2
time step continuity errors : sum local = 2.84062e-05, global = -2.03909e-07, cumulative = -0.000121275
ExecutionTime = 81.6583 s  ClockTime = 82 s

Time = 123s

DILUPBiCGStab:  Solving for Ux, Initial residual = 0.00707691, Final residual = 0.000405049, No Iterations 2
DILUPBiCGStab:  Solving for Uy, Initial residual = 0.0217386, Final residual = 0.0012543, No Iterations 2
DILUPBiCGStab:  Solving for Uz, Initial residual = 0.0167713, Final residual = 0.000900157, No Iterations 2
GAMG:  Solving for p, Initial residual = 0.223838, Final residual = 0.00947858, No Iterations 2
time step continuity errors : sum local = 3.08989e-05, global = 1.70995e-07, cumulative = -0.000121104
ExecutionTime = 82.2992 s  ClockTime = 82 s

Time = 124s

DILUPBiCGStab:  Solving for Ux, Initial residual = 0.00683689, Final residual = 0.000397376, No Iterations 2
DILUPBiCGStab:  Solving for Uy, Initial residual = 0.0215292, Final residual = 0.00122029, No Iterations 2
DILUPBiCGStab:  Solving for Uz, Initial residual = 0.0167568, Final residual = 0.000903936, No Iterations 2
GAMG:  Solving for p, Initial residual = 0.229533, Final residual = 0.0109586, No Iterations 2
time step continuity errors : sum local = 3.41579e-05, global = 3.88957e-07, cumulative = -0.000120715
ExecutionTime = 82.9383 s  ClockTime = 83 s

Time = 125s

DILUPBiCGStab:  Solving for Ux, Initial residual = 0.00692995, Final residual = 0.000397344, No Iterations 2
DILUPBiCGStab:  Solving for Uy, Initial residual = 0.0214691, Final residual = 0.00118876, No Iterations 2
DILUPBiCGStab:  Solving for Uz, Initial residual = 0.0166528, Final residual = 0.000898634, No Iterations 2
GAMG:  Solving for p, Initial residual = 0.242277, Final residual = 0.0117748, No Iterations 2
time step continuity errors : sum local = 3.41022e-05, global = 2.87666e-07, cumulative = -0.000120427
ExecutionTime = 83.5786 s  ClockTime = 84 s

Time = 126s

DILUPBiCGStab:  Solving for Ux, Initial residual = 0.00741754, Final residual = 0.000410975, No Iterations 2
DILUPBiCGStab:  Solving for Uy, Initial residual = 0.0214127, Final residual = 0.00116676, No Iterations 2
DILUPBiCGStab:  Solving for Uz, Initial residual = 0.0164387, Final residual = 0.000889636, No Iterations 2
GAMG:  Solving for p, Initial residual = 0.248187, Final residual = 0.0112333, No Iterations 2
time step continuity errors : sum local = 3.12978e-05, global = -6.94308e-08, cumulative = -0.000120497
ExecutionTime = 84.2191 s  ClockTime = 84 s

Time = 127s

DILUPBiCGStab:  Solving for Ux, Initial residual = 0.00781532, Final residual = 0.000424206, No Iterations 2
DILUPBiCGStab:  Solving for Uy, Initial residual = 0.0212486, Final residual = 0.00114667, No Iterations 2
DILUPBiCGStab:  Solving for Uz, Initial residual = 0.0162515, Final residual = 0.000881758, No Iterations 2
GAMG:  Solving for p, Initial residual = 0.237459, Final residual = 0.00999872, No Iterations 2
time step continuity errors : sum local = 2.87553e-05, global = -4.17139e-07, cumulative = -0.000120914
ExecutionTime = 84.8611 s  ClockTime = 85 s

Time = 128s

DILUPBiCGStab:  Solving for Ux, Initial residual = 0.00802069, Final residual = 0.000432974, No Iterations 2
DILUPBiCGStab:  Solving for Uy, Initial residual = 0.0210523, Final residual = 0.00113514, No Iterations 2
DILUPBiCGStab:  Solving for Uz, Initial residual = 0.016204, Final residual = 0.00088008, No Iterations 2
GAMG:  Solving for p, Initial residual = 0.231099, Final residual = 0.00957671, No Iterations 2
time step continuity errors : sum local = 2.78968e-05, global = -2.3628e-07, cumulative = -0.00012115
ExecutionTime = 85.5013 s  ClockTime = 86 s

Time = 129s

DILUPBiCGStab:  Solving for Ux, Initial residual = 0.00827302, Final residual = 0.000442579, No Iterations 2
DILUPBiCGStab:  Solving for Uy, Initial residual = 0.0209724, Final residual = 0.00113387, No Iterations 2
DILUPBiCGStab:  Solving for Uz, Initial residual = 0.0162798, Final residual = 0.000887016, No Iterations 2
GAMG:  Solving for p, Initial residual = 0.225631, Final residual = 0.00949679, No Iterations 2
time step continuity errors : sum local = 2.79375e-05, global = 1.37902e-07, cumulative = -0.000121012
ExecutionTime = 86.1414 s  ClockTime = 86 s

Time = 130s

DILUPBiCGStab:  Solving for Ux, Initial residual = 0.0088346, Final residual = 0.000459078, No Iterations 2
DILUPBiCGStab:  Solving for Uy, Initial residual = 0.0210718, Final residual = 0.00114013, No Iterations 2
DILUPBiCGStab:  Solving for Uz, Initial residual = 0.0164021, Final residual = 0.000894272, No Iterations 2
GAMG:  Solving for p, Initial residual = 0.219461, Final residual = 0.00934478, No Iterations 2
time step continuity errors : sum local = 2.79238e-05, global = 3.86534e-07, cumulative = -0.000120626
ExecutionTime = 86.7819 s  ClockTime = 87 s

Time = 131s

DILUPBiCGStab:  Solving for Ux, Initial residual = 0.00953768, Final residual = 0.000480968, No Iterations 2
DILUPBiCGStab:  Solving for Uy, Initial residual = 0.021283, Final residual = 0.00115054, No Iterations 2
DILUPBiCGStab:  Solving for Uz, Initial residual = 0.0165053, Final residual = 0.000897229, No Iterations 2
GAMG:  Solving for p, Initial residual = 0.211346, Final residual = 0.00922719, No Iterations 2
time step continuity errors : sum local = 2.83666e-05, global = 5.91129e-07, cumulative = -0.000120034
ExecutionTime = 87.4238 s  ClockTime = 88 s

Time = 132s

DILUPBiCGStab:  Solving for Ux, Initial residual = 0.0102303, Final residual = 0.000503314, No Iterations 2
DILUPBiCGStab:  Solving for Uy, Initial residual = 0.0215721, Final residual = 0.00116485, No Iterations 2
DILUPBiCGStab:  Solving for Uz, Initial residual = 0.016578, Final residual = 0.00090116, No Iterations 2
GAMG:  Solving for p, Initial residual = 0.202304, Final residual = 0.00865953, No Iterations 2
time step continuity errors : sum local = 2.75595e-05, global = 2.54744e-07, cumulative = -0.00011978
ExecutionTime = 88.0656 s  ClockTime = 88 s

Time = 133s

DILUPBiCGStab:  Solving for Ux, Initial residual = 0.0107308, Final residual = 0.000521109, No Iterations 2
DILUPBiCGStab:  Solving for Uy, Initial residual = 0.0219829, Final residual = 0.00118652, No Iterations 2
DILUPBiCGStab:  Solving for Uz, Initial residual = 0.0166118, Final residual = 0.0009078, No Iterations 2
GAMG:  Solving for p, Initial residual = 0.194944, Final residual = 0.00679731, No Iterations 2
time step continuity errors : sum local = 2.21489e-05, global = -6.40428e-07, cumulative = -0.00012042
ExecutionTime = 88.7063 s  ClockTime = 89 s

Time = 134s

DILUPBiCGStab:  Solving for Ux, Initial residual = 0.0109188, Final residual = 0.000526793, No Iterations 2
DILUPBiCGStab:  Solving for Uy, Initial residual = 0.0223197, Final residual = 0.0012059, No Iterations 2
DILUPBiCGStab:  Solving for Uz, Initial residual = 0.0165666, Final residual = 0.000904945, No Iterations 2
GAMG:  Solving for p, Initial residual = 0.192095, Final residual = 0.00643636, No Iterations 2
time step continuity errors : sum local = 2.09022e-05, global = -5.40044e-07, cumulative = -0.00012096
ExecutionTime = 89.3465 s  ClockTime = 90 s

Time = 135s

DILUPBiCGStab:  Solving for Ux, Initial residual = 0.0109711, Final residual = 0.00053229, No Iterations 2
DILUPBiCGStab:  Solving for Uy, Initial residual = 0.0225943, Final residual = 0.00122346, No Iterations 2
DILUPBiCGStab:  Solving for Uz, Initial residual = 0.0165185, Final residual = 0.0009062, No Iterations 2
GAMG:  Solving for p, Initial residual = 0.19051, Final residual = 0.00654127, No Iterations 2
time step continuity errors : sum local = 2.10513e-05, global = -4.61432e-07, cumulative = -0.000121422
ExecutionTime = 89.9875 s  ClockTime = 90 s

Time = 136s

DILUPBiCGStab:  Solving for Ux, Initial residual = 0.0109925, Final residual = 0.000536781, No Iterations 2
DILUPBiCGStab:  Solving for Uy, Initial residual = 0.0228866, Final residual = 0.001249, No Iterations 2
DILUPBiCGStab:  Solving for Uz, Initial residual = 0.0165042, Final residual = 0.000912278, No Iterations 2
GAMG:  Solving for p, Initial residual = 0.18892, Final residual = 0.00667189, No Iterations 2
time step continuity errors : sum local = 2.12884e-05, global = -2.52898e-07, cumulative = -0.000121674
ExecutionTime = 90.6287 s  ClockTime = 91 s

Time = 137s

DILUPBiCGStab:  Solving for Ux, Initial residual = 0.0110296, Final residual = 0.00053998, No Iterations 2
DILUPBiCGStab:  Solving for Uy, Initial residual = 0.0231562, Final residual = 0.00127635, No Iterations 2
[...]
time step continuity errors : sum local = 4.04905e-05, global = -1.20413e-06, cumulative = -0.000106331
ExecutionTime = 300.635 s  ClockTime = 301 s

Time = 467s

DILUPBiCGStab:  Solving for Ux, Initial residual = 0.00848693, Final residual = 0.000604902, No Iterations 2
DILUPBiCGStab:  Solving for Uy, Initial residual = 0.012338, Final residual = 0.000804174, No Iterations 2
DILUPBiCGStab:  Solving for Uz, Initial residual = 0.00779074, Final residual = 0.000599365, No Iterations 2
GAMG:  Solving for p, Initial residual = 0.137821, Final residual = 0.00617683, No Iterations 2
time step continuity errors : sum local = 4.31651e-05, global = -2.60845e-06, cumulative = -0.00010894
ExecutionTime = 301.275 s  ClockTime = 301 s

Time = 468s

DILUPBiCGStab:  Solving for Ux, Initial residual = 0.00827365, Final residual = 0.00059379, No Iterations 2
DILUPBiCGStab:  Solving for Uy, Initial residual = 0.0120167, Final residual = 0.000779544, No Iterations 2
DILUPBiCGStab:  Solving for Uz, Initial residual = 0.00776682, Final residual = 0.000601275, No Iterations 2
GAMG:  Solving for p, Initial residual = 0.136334, Final residual = 0.00791888, No Iterations 2
time step continuity errors : sum local = 5.55164e-05, global = -1.7589e-06, cumulative = -0.000110698
ExecutionTime = 301.916 s  ClockTime = 302 s

Time = 469s

DILUPBiCGStab:  Solving for Ux, Initial residual = 0.00783932, Final residual = 0.000579196, No Iterations 2
DILUPBiCGStab:  Solving for Uy, Initial residual = 0.011766, Final residual = 0.000762467, No Iterations 2
DILUPBiCGStab:  Solving for Uz, Initial residual = 0.00780826, Final residual = 0.000607579, No Iterations 2
GAMG:  Solving for p, Initial residual = 0.139047, Final residual = 0.0107241, No Iterations 2
time step continuity errors : sum local = 7.38326e-05, global = -4.90374e-07, cumulative = -0.000111189
ExecutionTime = 302.555 s  ClockTime = 303 s

Time = 470s

DILUPBiCGStab:  Solving for Ux, Initial residual = 0.00764359, Final residual = 0.000569199, No Iterations 2
DILUPBiCGStab:  Solving for Uy, Initial residual = 0.0116621, Final residual = 0.000755173, No Iterations 2
DILUPBiCGStab:  Solving for Uz, Initial residual = 0.00785233, Final residual = 0.000608779, No Iterations 2
GAMG:  Solving for p, Initial residual = 0.148309, Final residual = 0.0100749, No Iterations 2
time step continuity errors : sum local = 6.64928e-05, global = -9.48862e-07, cumulative = -0.000112138
ExecutionTime = 303.195 s  ClockTime = 303 s

Time = 471s

DILUPBiCGStab:  Solving for Ux, Initial residual = 0.00809923, Final residual = 0.000593701, No Iterations 2
DILUPBiCGStab:  Solving for Uy, Initial residual = 0.0115079, Final residual = 0.000746255, No Iterations 2
DILUPBiCGStab:  Solving for Uz, Initial residual = 0.00781781, Final residual = 0.000604906, No Iterations 2
GAMG:  Solving for p, Initial residual = 0.157335, Final residual = 0.00668541, No Iterations 2
time step continuity errors : sum local = 4.26962e-05, global = -5.58868e-07, cumulative = -0.000112697
ExecutionTime = 303.834 s  ClockTime = 304 s

Time = 472s

DILUPBiCGStab:  Solving for Ux, Initial residual = 0.00810796, Final residual = 0.000593271, No Iterations 2
DILUPBiCGStab:  Solving for Uy, Initial residual = 0.0112674, Final residual = 0.000713121, No Iterations 2
DILUPBiCGStab:  Solving for Uz, Initial residual = 0.00772259, Final residual = 0.000591386, No Iterations 2
GAMG:  Solving for p, Initial residual = 0.155478, Final residual = 0.0066855, No Iterations 2
time step continuity errors : sum local = 4.26857e-05, global = 1.59591e-06, cumulative = -0.000111101
ExecutionTime = 304.474 s  ClockTime = 305 s

Time = 473s

DILUPBiCGStab:  Solving for Ux, Initial residual = 0.00802601, Final residual = 0.000588337, No Iterations 2
DILUPBiCGStab:  Solving for Uy, Initial residual = 0.0111443, Final residual = 0.000689331, No Iterations 2
DILUPBiCGStab:  Solving for Uz, Initial residual = 0.00769097, Final residual = 0.000590578, No Iterations 2
GAMG:  Solving for p, Initial residual = 0.153185, Final residual = 0.00686255, No Iterations 2
time step continuity errors : sum local = 4.40328e-05, global = 2.00405e-06, cumulative = -0.000109097
ExecutionTime = 305.114 s  ClockTime = 305 s

Time = 474s

DILUPBiCGStab:  Solving for Ux, Initial residual = 0.00787125, Final residual = 0.000579031, No Iterations 2
DILUPBiCGStab:  Solving for Uy, Initial residual = 0.0110905, Final residual = 0.000695141, No Iterations 2
DILUPBiCGStab:  Solving for Uz, Initial residual = 0.00766344, Final residual = 0.000585369, No Iterations 2
GAMG:  Solving for p, Initial residual = 0.150921, Final residual = 0.00687348, No Iterations 2
time step continuity errors : sum local = 4.44613e-05, global = 1.90233e-06, cumulative = -0.000107194
ExecutionTime = 305.752 s  ClockTime = 306 s

Time = 475s

DILUPBiCGStab:  Solving for Ux, Initial residual = 0.00777407, Final residual = 0.000569968, No Iterations 2
DILUPBiCGStab:  Solving for Uy, Initial residual = 0.0110563, Final residual = 0.000699288, No Iterations 2
DILUPBiCGStab:  Solving for Uz, Initial residual = 0.00765083, Final residual = 0.0005843, No Iterations 2
GAMG:  Solving for p, Initial residual = 0.149072, Final residual = 0.00668529, No Iterations 2
time step continuity errors : sum local = 4.36404e-05, global = 1.50115e-06, cumulative = -0.000105693
ExecutionTime = 306.393 s  ClockTime = 307 s

Time = 476s

DILUPBiCGStab:  Solving for Ux, Initial residual = 0.00776079, Final residual = 0.000570191, No Iterations 2
DILUPBiCGStab:  Solving for Uy, Initial residual = 0.0110094, Final residual = 0.000683207, No Iterations 2
DILUPBiCGStab:  Solving for Uz, Initial residual = 0.00764944, Final residual = 0.000580319, No Iterations 2
GAMG:  Solving for p, Initial residual = 0.147424, Final residual = 0.00650046, No Iterations 2
time step continuity errors : sum local = 4.27535e-05, global = 1.091e-06, cumulative = -0.000104602
ExecutionTime = 307.037 s  ClockTime = 307 s

Time = 477s

DILUPBiCGStab:  Solving for Ux, Initial residual = 0.00776002, Final residual = 0.000569018, No Iterations 2
DILUPBiCGStab:  Solving for Uy, Initial residual = 0.0109603, Final residual = 0.000668856, No Iterations 2
DILUPBiCGStab:  Solving for Uz, Initial residual = 0.00764936, Final residual = 0.000583077, No Iterations 2
GAMG:  Solving for p, Initial residual = 0.146207, Final residual = 0.0063789, No Iterations 2
time step continuity errors : sum local = 4.22977e-05, global = 5.93461e-07, cumulative = -0.000104009
ExecutionTime = 307.676 s  ClockTime = 308 s

Time = 478s

DILUPBiCGStab:  Solving for Ux, Initial residual = 0.0077846, Final residual = 0.000571252, No Iterations 2
DILUPBiCGStab:  Solving for Uy, Initial residual = 0.0109273, Final residual = 0.000663085, No Iterations 2
DILUPBiCGStab:  Solving for Uz, Initial residual = 0.00764801, Final residual = 0.0005833, No Iterations 2
GAMG:  Solving for p, Initial residual = 0.145562, Final residual = 0.0063967, No Iterations 2
time step continuity errors : sum local = 4.26744e-05, global = 5.69089e-08, cumulative = -0.000103952
ExecutionTime = 308.316 s  ClockTime = 309 s

Time = 479s

DILUPBiCGStab:  Solving for Ux, Initial residual = 0.00778544, Final residual = 0.000569627, No Iterations 2
DILUPBiCGStab:  Solving for Uy, Initial residual = 0.0109026, Final residual = 0.0006578, No Iterations 2
DILUPBiCGStab:  Solving for Uz, Initial residual = 0.00762857, Final residual = 0.000582635, No Iterations 2
GAMG:  Solving for p, Initial residual = 0.144921, Final residual = 0.00652151, No Iterations 2
time step continuity errors : sum local = 4.37897e-05, global = -3.77046e-07, cumulative = -0.000104329
ExecutionTime = 308.957 s  ClockTime = 309 s

Time = 480s

DILUPBiCGStab:  Solving for Ux, Initial residual = 0.00773709, Final residual = 0.000564678, No Iterations 2
DILUPBiCGStab:  Solving for Uy, Initial residual = 0.0108176, Final residual = 0.000652777, No Iterations 2
DILUPBiCGStab:  Solving for Uz, Initial residual = 0.00761161, Final residual = 0.000583689, No Iterations 2
GAMG:  Solving for p, Initial residual = 0.144268, Final residual = 0.00666669, No Iterations 2
time step continuity errors : sum local = 4.50502e-05, global = -5.48579e-07, cumulative = -0.000104877
ExecutionTime = 309.596 s  ClockTime = 310 s

Time = 481s

DILUPBiCGStab:  Solving for Ux, Initial residual = 0.00768627, Final residual = 0.000560723, No Iterations 2
DILUPBiCGStab:  Solving for Uy, Initial residual = 0.0107352, Final residual = 0.000649728, No Iterations 2
DILUPBiCGStab:  Solving for Uz, Initial residual = 0.00759498, Final residual = 0.000581747, No Iterations 2
GAMG:  Solving for p, Initial residual = 0.143895, Final residual = 0.00676859, No Iterations 2
time step continuity errors : sum local = 4.60404e-05, global = -8.11194e-07, cumulative = -0.000105689
ExecutionTime = 310.236 s  ClockTime = 310 s

Time = 482s

DILUPBiCGStab:  Solving for Ux, Initial residual = 0.00765636, Final residual = 0.000556279, No Iterations 2
DILUPBiCGStab:  Solving for Uy, Initial residual = 0.0107048, Final residual = 0.000647284, No Iterations 2
DILUPBiCGStab:  Solving for Uz, Initial residual = 0.00758473, Final residual = 0.00057763, No Iterations 2
GAMG:  Solving for p, Initial residual = 0.143991, Final residual = 0.00677393, No Iterations 2
time step continuity errors : sum local = 4.63826e-05, global = -7.90423e-07, cumulative = -0.000106479
ExecutionTime = 310.876 s  ClockTime = 311 s

Time = 483s

DILUPBiCGStab:  Solving for Ux, Initial residual = 0.00766065, Final residual = 0.000557207, No Iterations 2
DILUPBiCGStab:  Solving for Uy, Initial residual = 0.0106918, Final residual = 0.000652038, No Iterations 2
DILUPBiCGStab:  Solving for Uz, Initial residual = 0.00755606, Final residual = 0.000571611, No Iterations 2
GAMG:  Solving for p, Initial residual = 0.143632, Final residual = 0.0066657, No Iterations 2
time step continuity errors : sum local = 4.5878e-05, global = -4.11988e-07, cumulative = -0.000106891
ExecutionTime = 311.519 s  ClockTime = 312 s

Time = 484s

DILUPBiCGStab:  Solving for Ux, Initial residual = 0.00770555, Final residual = 0.000564839, No Iterations 2
DILUPBiCGStab:  Solving for Uy, Initial residual = 0.010677, Final residual = 0.000654298, No Iterations 2
DILUPBiCGStab:  Solving for Uz, Initial residual = 0.00753606, Final residual = 0.000566466, No Iterations 2
GAMG:  Solving for p, Initial residual = 0.143194, Final residual = 0.00650449, No Iterations 2
time step continuity errors : sum local = 4.49516e-05, global = -1.79771e-07, cumulative = -0.000107071
ExecutionTime = 312.161 s  ClockTime = 312 s

Time = 485s

DILUPBiCGStab:  Solving for Ux, Initial residual = 0.00776135, Final residual = 0.000567946, No Iterations 2
DILUPBiCGStab:  Solving for Uy, Initial residual = 0.010634, Final residual = 0.000653705, No Iterations 2
DILUPBiCGStab:  Solving for Uz, Initial residual = 0.0075147, Final residual = 0.000562869, No Iterations 2
GAMG:  Solving for p, Initial residual = 0.143404, Final residual = 0.00641452, No Iterations 2
time step continuity errors : sum local = 4.4593e-05, global = 5.05685e-07, cumulative = -0.000106565
ExecutionTime = 312.8 s  ClockTime = 313 s

Time = 486s

DILUPBiCGStab:  Solving for Ux, Initial residual = 0.00779505, Final residual = 0.000569778, No Iterations 2
DILUPBiCGStab:  Solving for Uy, Initial residual = 0.0105696, Final residual = 0.000650431, No Iterations 2
DILUPBiCGStab:  Solving for Uz, Initial residual = 0.0075044, Final residual = 0.000560539, No Iterations 2
GAMG:  Solving for p, Initial residual = 0.14336, Final residual = 0.00633175, No Iterations 2
time step continuity errors : sum local = 4.42571e-05, global = 1.2786e-06, cumulative = -0.000105286
ExecutionTime = 313.439 s  ClockTime = 314 s

Time = 487s

DILUPBiCGStab:  Solving for Ux, Initial residual = 0.00776267, Final residual = 0.00056879, No Iterations 2
DILUPBiCGStab:  Solving for Uy, Initial residual = 0.0104665, Final residual = 0.000644894, No Iterations 2
DILUPBiCGStab:  Solving for Uz, Initial residual = 0.00748791, Final residual = 0.000557895, No Iterations 2
GAMG:  Solving for p, Initial residual = 0.143812, Final residual = 0.00758409, No Iterations 2
time step continuity errors : sum local = 5.3446e-05, global = 1.44576e-06, cumulative = -0.000103841
ExecutionTime = 314.079 s  ClockTime = 314 s

Time = 488s

DILUPBiCGStab:  Solving for Ux, Initial residual = 0.00757596, Final residual = 0.000561944, No Iterations 2
DILUPBiCGStab:  Solving for Uy, Initial residual = 0.0104249, Final residual = 0.000640986, No Iterations 2
DILUPBiCGStab:  Solving for Uz, Initial residual = 0.00749742, Final residual = 0.000557952, No Iterations 2
GAMG:  Solving for p, Initial residual = 0.141763, Final residual = 0.0114406, No Iterations 2
time step continuity errors : sum local = 8.23587e-05, global = 5.4478e-08, cumulative = -0.000103786
ExecutionTime = 314.719 s  ClockTime = 315 s

Time = 489s

DILUPBiCGStab:  Solving for Ux, Initial residual = 0.00835283, Final residual = 0.000607057, No Iterations 2
DILUPBiCGStab:  Solving for Uy, Initial residual = 0.0106682, Final residual = 0.000663847, No Iterations 2
DILUPBiCGStab:  Solving for Uz, Initial residual = 0.00753273, Final residual = 0.000561453, No Iterations 2
GAMG:  Solving for p, Initial residual = 0.139966, Final residual = 0.00713309, No Iterations 3
time step continuity errors : sum local = 5.42085e-05, global = 3.34685e-06, cumulative = -0.000100439
ExecutionTime = 315.396 s  ClockTime = 316 s

Time = 490s

DILUPBiCGStab:  Solving for Ux, Initial residual = 0.0114222, Final residual = 0.000769902, No Iterations 2
DILUPBiCGStab:  Solving for Uy, Initial residual = 0.0112699, Final residual = 0.000710188, No Iterations 2
DILUPBiCGStab:  Solving for Uz, Initial residual = 0.00763967, Final residual = 0.000573675, No Iterations 2
GAMG:  Solving for p, Initial residual = 0.138847, Final residual = 0.00588119, No Iterations 2
time step continuity errors : sum local = 4.97912e-05, global = 6.80529e-07, cumulative = -9.97588e-05
ExecutionTime = 316.035 s  ClockTime = 316 s

Time = 491s

DILUPBiCGStab:  Solving for Ux, Initial residual = 0.0114864, Final residual = 0.000767259, No Iterations 2
DILUPBiCGStab:  Solving for Uy, Initial residual = 0.010768, Final residual = 0.000685467, No Iterations 2
DILUPBiCGStab:  Solving for Uz, Initial residual = 0.00744641, Final residual = 0.000552921, No Iterations 2
GAMG:  Solving for p, Initial residual = 0.135913, Final residual = 0.00545878, No Iterations 2
time step continuity errors : sum local = 4.73319e-05, global = -6.22927e-07, cumulative = -0.000100382
ExecutionTime = 316.675 s  ClockTime = 317 s

Time = 492s

DILUPBiCGStab:  Solving for Ux, Initial residual = 0.0110784, Final residual = 0.000744285, No Iterations 2
DILUPBiCGStab:  Solving for Uy, Initial residual = 0.0106286, Final residual = 0.000680785, No Iterations 2
DILUPBiCGStab:  Solving for Uz, Initial residual = 0.00741109, Final residual = 0.000553425, No Iterations 2
GAMG:  Solving for p, Initial residual = 0.134521, Final residual = 0.00627579, No Iterations 2
time step continuity errors : sum local = 5.48468e-05, global = -1.96715e-06, cumulative = -0.000102349
ExecutionTime = 317.316 s  ClockTime = 318 s

Time = 493s

DILUPBiCGStab:  Solving for Ux, Initial residual = 0.0106245, Final residual = 0.000720831, No Iterations 2
DILUPBiCGStab:  Solving for Uy, Initial residual = 0.0107322, Final residual = 0.0007039, No Iterations 2
DILUPBiCGStab:  Solving for Uz, Initial residual = 0.00745708, Final residual = 0.000558547, No Iterations 2
GAMG:  Solving for p, Initial residual = 0.134767, Final residual = 0.00657482, No Iterations 2
time step continuity errors : sum local = 5.80259e-05, global = -2.34735e-06, cumulative = -0.000104696
ExecutionTime = 317.957 s  ClockTime = 318 s

Time = 494s

DILUPBiCGStab:  Solving for Ux, Initial residual = 0.0104938, Final residual = 0.000715431, No Iterations 2
DILUPBiCGStab:  Solving for Uy, Initial residual = 0.0110255, Final residual = 0.000736626, No Iterations 2
DILUPBiCGStab:  Solving for Uz, Initial residual = 0.00751947, Final residual = 0.000563533, No Iterations 2
GAMG:  Solving for p, Initial residual = 0.135374, Final residual = 0.00651301, No Iterations 2
time step continuity errors : sum local = 5.80219e-05, global = -2.30163e-06, cumulative = -0.000106998
ExecutionTime = 318.596 s  ClockTime = 319 s

Time = 495s

DILUPBiCGStab:  Solving for Ux, Initial residual = 0.0104534, Final residual = 0.000707906, No Iterations 2
DILUPBiCGStab:  Solving for Uy, Initial residual = 0.0114363, Final residual = 0.000792449, No Iterations 2
DILUPBiCGStab:  Solving for Uz, Initial residual = 0.00762876, Final residual = 0.000574693, No Iterations 2
GAMG:  Solving for p, Initial residual = 0.136682, Final residual = 0.00630556, No Iterations 2
time step continuity errors : sum local = 5.68123e-05, global = -1.66717e-06, cumulative = -0.000108665
ExecutionTime = 319.237 s  ClockTime = 319 s

Time = 496s

DILUPBiCGStab:  Solving for Ux, Initial residual = 0.0104638, Final residual = 0.000706615, No Iterations 2
DILUPBiCGStab:  Solving for Uy, Initial residual = 0.0119695, Final residual = 0.000845479, No Iterations 2
DILUPBiCGStab:  Solving for Uz, Initial residual = 0.00775144, Final residual = 0.00058061, No Iterations 2
GAMG:  Solving for p, Initial residual = 0.138029, Final residual = 0.006259, No Iterations 2
time step continuity errors : sum local = 5.71139e-05, global = -6.59822e-07, cumulative = -0.000109325
ExecutionTime = 319.877 s  ClockTime = 320 s

Time = 497s

DILUPBiCGStab:  Solving for Ux, Initial residual = 0.0104801, Final residual = 0.00070565, No Iterations 2
DILUPBiCGStab:  Solving for Uy, Initial residual = 0.0125629, Final residual = 0.000905375, No Iterations 2
DILUPBiCGStab:  Solving for Uz, Initial residual = 0.00788233, Final residual = 0.000585685, No Iterations 2
GAMG:  Solving for p, Initial residual = 0.139368, Final residual = 0.00665354, No Iterations 2
time step continuity errors : sum local = 6.16536e-05, global = 1.10831e-06, cumulative = -0.000108217
ExecutionTime = 320.515 s  ClockTime = 321 s

Time = 498s

DILUPBiCGStab:  Solving for Ux, Initial residual = 0.0105663, Final residual = 0.000703933, No Iterations 2
DILUPBiCGStab:  Solving for Uy, Initial residual = 0.0134434, Final residual = 0.000981731, No Iterations 2
DILUPBiCGStab:  Solving for Uz, Initial residual = 0.00801926, Final residual = 0.000595912, No Iterations 2
GAMG:  Solving for p, Initial residual = 0.141106, Final residual = 0.00684905, No Iterations 2
time step continuity errors : sum local = 6.47285e-05, global = 8.19718e-07, cumulative = -0.000107397
ExecutionTime = 321.155 s  ClockTime = 321 s

Time = 499s

DILUPBiCGStab:  Solving for Ux, Initial residual = 0.0109014, Final residual = 0.000725877, No Iterations 2
DILUPBiCGStab:  Solving for Uy, Initial residual = 0.0143912, Final residual = 0.00105488, No Iterations 2
DILUPBiCGStab:  Solving for Uz, Initial residual = 0.00814514, Final residual = 0.000602802, No Iterations 2
GAMG:  Solving for p, Initial residual = 0.141536, Final residual = 0.00638414, No Iterations 2
time step continuity errors : sum local = 6.2295e-05, global = 1.31854e-06, cumulative = -0.000106078
ExecutionTime = 321.794 s  ClockTime = 322 s

Time = 500s

DILUPBiCGStab:  Solving for Ux, Initial residual = 0.0113326, Final residual = 0.000753718, No Iterations 2
DILUPBiCGStab:  Solving for Uy, Initial residual = 0.0150491, Final residual = 0.00110746, No Iterations 2
DILUPBiCGStab:  Solving for Uz, Initial residual = 0.00826072, Final residual = 0.000618273, No Iterations 2
GAMG:  Solving for p, Initial residual = 0.14232, Final residual = 0.00569803, No Iterations 2
time step continuity errors : sum local = 5.73871e-05, global = 1.22272e-06, cumulative = -0.000104856
ExecutionTime = 322.826 s  ClockTime = 323 s

End

Finalising parallel run
