/*---------------------------------------------------------------------------*\
  =========                 |
  \\      /  F ield         | OpenFOAM: The Open Source CFD Toolbox
   \\    /   O peration     | Website:  https://openfoam.org
    \\  /    A nd           | Version:  11
     \\/     M anipulation  |
\*---------------------------------------------------------------------------*/
Build  : 11
Exec   : foamRun -parallel
Date   : Nov 01 2024
Time   : 04:20:47
Host   : "skynet-linux"
PID    : 33442
I/O    : uncollated
Case   : /home/humberto/casesXCALibre/BFS_3D_5mm_OF11
nProcs : 8
Slaves : 
7
(
"skynet-linux.33443"
"skynet-linux.33444"
"skynet-linux.33445"
"skynet-linux.33446"
"skynet-linux.33447"
"skynet-linux.33448"
"skynet-linux.33450"
)

Pstream initialised with:
    floatTransfer      : false
    nProcsSimpleSum    : 0
    commsType          : nonBlocking
    polling iterations : 0
sigFpe : Enabling floating point exception trapping (FOAM_SIGFPE).
fileModificationChecking : Monitoring run-time modified files using timeStampMaster (fileModificationSkew 10)
allowSystemOperations : Allowing user-supplied system call operations

// * * * * * * * * * * * * * * * * * * * * * * * * * * * * * * * * * * * * * //
Create time

Create mesh for time = 0

Selecting solver incompressibleFluid
Selecting viscosity model constant
Selecting turbulence model type laminar
Selecting laminar stress model Stokes
No MRF models present


SIMPLE: Convergence criteria found
        p: tolerance 1e-07
        U: tolerance 1e-07
        "(k|epsilon|omega|f|v2)": tolerance 1e-07


SIMPLE: Operating solver in steady-state mode with 1 outer corrector
SIMPLE: Operating solver in SIMPLE mode



Starting time loop

Time = 1s

DILUPBiCGStab:  Solving for Ux, Initial residual = 1, Final residual = 0.0713165, No Iterations 3
DILUPBiCGStab:  Solving for Uy, Initial residual = 1, Final residual = 0.0823733, No Iterations 1
DILUPBiCGStab:  Solving for Uz, Initial residual = 1, Final residual = 0.0905141, No Iterations 1
GAMG:  Solving for p, Initial residual = 1, Final residual = 0.0805579, No Iterations 10
time step continuity errors : sum local = 2.27239e-05, global = 3.54482e-06, cumulative = 3.54482e-06
ExecutionTime = 0.669301 s  ClockTime = 1 s

Time = 2s

DILUPBiCGStab:  Solving for Ux, Initial residual = 0.878182, Final residual = 0.0435865, No Iterations 2
DILUPBiCGStab:  Solving for Uy, Initial residual = 0.447365, Final residual = 0.035075, No Iterations 2
DILUPBiCGStab:  Solving for Uz, Initial residual = 0.379906, Final residual = 0.0313388, No Iterations 1
GAMG:  Solving for p, Initial residual = 0.21218, Final residual = 0.0142228, No Iterations 3
time step continuity errors : sum local = 0.00120493, global = 9.22694e-05, cumulative = 9.58142e-05
ExecutionTime = 0.983531 s  ClockTime = 1 s

Time = 3s

DILUPBiCGStab:  Solving for Ux, Initial residual = 0.309712, Final residual = 0.0231182, No Iterations 2
DILUPBiCGStab:  Solving for Uy, Initial residual = 0.359153, Final residual = 0.0258675, No Iterations 2
DILUPBiCGStab:  Solving for Uz, Initial residual = 0.436532, Final residual = 0.0322915, No Iterations 1
GAMG:  Solving for p, Initial residual = 0.304749, Final residual = 0.0202838, No Iterations 5
time step continuity errors : sum local = 0.00042929, global = 2.67792e-05, cumulative = 0.000122593
ExecutionTime = 1.31745 s  ClockTime = 1 s

Time = 4s

DILUPBiCGStab:  Solving for Ux, Initial residual = 0.453043, Final residual = 0.0247985, No Iterations 2
DILUPBiCGStab:  Solving for Uy, Initial residual = 0.337847, Final residual = 0.0301875, No Iterations 1
DILUPBiCGStab:  Solving for Uz, Initial residual = 0.413836, Final residual = 0.0307823, No Iterations 1
GAMG:  Solving for p, Initial residual = 0.283061, Final residual = 0.0142385, No Iterations 3
time step continuity errors : sum local = 0.000650078, global = -5.07852e-05, cumulative = 7.18082e-05
ExecutionTime = 1.62132 s  ClockTime = 2 s

Time = 5s

DILUPBiCGStab:  Solving for Ux, Initial residual = 0.61117, Final residual = 0.0299949, No Iterations 2
DILUPBiCGStab:  Solving for Uy, Initial residual = 0.241987, Final residual = 0.0236376, No Iterations 2
DILUPBiCGStab:  Solving for Uz, Initial residual = 0.19845, Final residual = 0.018104, No Iterations 1
GAMG:  Solving for p, Initial residual = 0.257881, Final residual = 0.0150228, No Iterations 3
time step continuity errors : sum local = 0.000915402, global = -6.26586e-05, cumulative = 9.14966e-06
ExecutionTime = 1.93298 s  ClockTime = 2 s

Time = 6s

DILUPBiCGStab:  Solving for Ux, Initial residual = 0.412242, Final residual = 0.0316344, No Iterations 2
DILUPBiCGStab:  Solving for Uy, Initial residual = 0.394452, Final residual = 0.0380061, No Iterations 2
DILUPBiCGStab:  Solving for Uz, Initial residual = 0.381197, Final residual = 0.03424, No Iterations 1
GAMG:  Solving for p, Initial residual = 0.320581, Final residual = 0.0194532, No Iterations 4
time step continuity errors : sum local = 0.000502308, global = 6.86585e-05, cumulative = 7.78082e-05
ExecutionTime = 2.25481 s  ClockTime = 2 s

Time = 7s

DILUPBiCGStab:  Solving for Ux, Initial residual = 0.622245, Final residual = 0.0411259, No Iterations 2
DILUPBiCGStab:  Solving for Uy, Initial residual = 0.346382, Final residual = 0.0213264, No Iterations 2
DILUPBiCGStab:  Solving for Uz, Initial residual = 0.431103, Final residual = 0.0408208, No Iterations 1
GAMG:  Solving for p, Initial residual = 0.296409, Final residual = 0.016733, No Iterations 3
time step continuity errors : sum local = 0.000551813, global = 1.30862e-05, cumulative = 9.08944e-05
ExecutionTime = 2.5682 s  ClockTime = 3 s

Time = 8s

DILUPBiCGStab:  Solving for Ux, Initial residual = 0.733026, Final residual = 0.0433518, No Iterations 2
DILUPBiCGStab:  Solving for Uy, Initial residual = 0.283943, Final residual = 0.0274818, No Iterations 2
DILUPBiCGStab:  Solving for Uz, Initial residual = 0.246628, Final residual = 0.0117904, No Iterations 2
GAMG:  Solving for p, Initial residual = 0.333798, Final residual = 0.0197696, No Iterations 3
time step continuity errors : sum local = 0.000556481, global = 3.46585e-05, cumulative = 0.000125553
ExecutionTime = 2.88714 s  ClockTime = 3 s

Time = 9s

DILUPBiCGStab:  Solving for Ux, Initial residual = 0.372282, Final residual = 0.0238408, No Iterations 2
DILUPBiCGStab:  Solving for Uy, Initial residual = 0.396399, Final residual = 0.0322117, No Iterations 2
DILUPBiCGStab:  Solving for Uz, Initial residual = 0.379688, Final residual = 0.0233142, No Iterations 2
GAMG:  Solving for p, Initial residual = 0.589627, Final residual = 0.0284375, No Iterations 4
time step continuity errors : sum local = 0.000365952, global = -2.47624e-05, cumulative = 0.00010079
ExecutionTime = 3.21553 s  ClockTime = 3 s

Time = 10s

DILUPBiCGStab:  Solving for Ux, Initial residual = 0.348796, Final residual = 0.0237036, No Iterations 2
DILUPBiCGStab:  Solving for Uy, Initial residual = 0.249531, Final residual = 0.012914, No Iterations 2
DILUPBiCGStab:  Solving for Uz, Initial residual = 0.325838, Final residual = 0.0251789, No Iterations 2
GAMG:  Solving for p, Initial residual = 0.278127, Final residual = 0.0209684, No Iterations 3
time step continuity errors : sum local = 0.000621204, global = -8.9398e-06, cumulative = 9.18507e-05
ExecutionTime = 3.53341 s  ClockTime = 4 s

Time = 11s

DILUPBiCGStab:  Solving for Ux, Initial residual = 0.330315, Final residual = 0.0212327, No Iterations 2
DILUPBiCGStab:  Solving for Uy, Initial residual = 0.221997, Final residual = 0.0165377, No Iterations 2
DILUPBiCGStab:  Solving for Uz, Initial residual = 0.220772, Final residual = 0.0202889, No Iterations 2
GAMG:  Solving for p, Initial residual = 0.287031, Final residual = 0.0184546, No Iterations 3
time step continuity errors : sum local = 0.000499737, global = -3.34453e-05, cumulative = 5.84053e-05
ExecutionTime = 3.85794 s  ClockTime = 4 s

Time = 12s

DILUPBiCGStab:  Solving for Ux, Initial residual = 0.228033, Final residual = 0.01413, No Iterations 2
DILUPBiCGStab:  Solving for Uy, Initial residual = 0.383607, Final residual = 0.0306949, No Iterations 2
DILUPBiCGStab:  Solving for Uz, Initial residual = 0.355536, Final residual = 0.0235891, No Iterations 2
GAMG:  Solving for p, Initial residual = 0.72627, Final residual = 0.0332085, No Iterations 4
time step continuity errors : sum local = 0.000347084, global = 6.19809e-08, cumulative = 5.84673e-05
ExecutionTime = 4.18681 s  ClockTime = 4 s

Time = 13s

DILUPBiCGStab:  Solving for Ux, Initial residual = 0.574263, Final residual = 0.0357882, No Iterations 2
DILUPBiCGStab:  Solving for Uy, Initial residual = 0.283111, Final residual = 0.0150309, No Iterations 2
DILUPBiCGStab:  Solving for Uz, Initial residual = 0.330872, Final residual = 0.016301, No Iterations 2
GAMG:  Solving for p, Initial residual = 0.311338, Final residual = 0.025383, No Iterations 3
time step continuity errors : sum local = 0.000669937, global = -7.05751e-06, cumulative = 5.14098e-05
ExecutionTime = 4.50516 s  ClockTime = 5 s

Time = 14s

DILUPBiCGStab:  Solving for Ux, Initial residual = 0.643277, Final residual = 0.0408685, No Iterations 2
DILUPBiCGStab:  Solving for Uy, Initial residual = 0.237061, Final residual = 0.0234483, No Iterations 2
DILUPBiCGStab:  Solving for Uz, Initial residual = 0.26591, Final residual = 0.0133238, No Iterations 2
GAMG:  Solving for p, Initial residual = 0.326761, Final residual = 0.0231586, No Iterations 3
time step continuity errors : sum local = 0.000483132, global = 2.73317e-05, cumulative = 7.87415e-05
ExecutionTime = 4.82334 s  ClockTime = 5 s

Time = 15s

DILUPBiCGStab:  Solving for Ux, Initial residual = 0.389944, Final residual = 0.025664, No Iterations 2
DILUPBiCGStab:  Solving for Uy, Initial residual = 0.403669, Final residual = 0.0365267, No Iterations 2
DILUPBiCGStab:  Solving for Uz, Initial residual = 0.381891, Final residual = 0.0275982, No Iterations 2
GAMG:  Solving for p, Initial residual = 0.641356, Final residual = 0.0638422, No Iterations 3
time step continuity errors : sum local = 0.000679515, global = -1.19999e-05, cumulative = 6.67415e-05
ExecutionTime = 5.14119 s  ClockTime = 5 s

Time = 16s

DILUPBiCGStab:  Solving for Ux, Initial residual = 0.275843, Final residual = 0.0181546, No Iterations 2
DILUPBiCGStab:  Solving for Uy, Initial residual = 0.250614, Final residual = 0.0161969, No Iterations 2
DILUPBiCGStab:  Solving for Uz, Initial residual = 0.286613, Final residual = 0.00976661, No Iterations 2
GAMG:  Solving for p, Initial residual = 0.358822, Final residual = 0.0328844, No Iterations 3
time step continuity errors : sum local = 0.000666571, global = -2.8984e-06, cumulative = 6.38431e-05
ExecutionTime = 5.46653 s  ClockTime = 6 s

Time = 17s

DILUPBiCGStab:  Solving for Ux, Initial residual = 0.195744, Final residual = 0.0145957, No Iterations 2
DILUPBiCGStab:  Solving for Uy, Initial residual = 0.180528, Final residual = 0.0160251, No Iterations 2
DILUPBiCGStab:  Solving for Uz, Initial residual = 0.240177, Final residual = 0.0116143, No Iterations 2
GAMG:  Solving for p, Initial residual = 0.351691, Final residual = 0.030816, No Iterations 3
time step continuity errors : sum local = 0.000523206, global = -1.69193e-05, cumulative = 4.69238e-05
ExecutionTime = 5.79015 s  ClockTime = 6 s

Time = 18s

DILUPBiCGStab:  Solving for Ux, Initial residual = 0.219414, Final residual = 0.0159416, No Iterations 2
DILUPBiCGStab:  Solving for Uy, Initial residual = 0.290205, Final residual = 0.0100845, No Iterations 2
DILUPBiCGStab:  Solving for Uz, Initial residual = 0.335426, Final residual = 0.0304926, No Iterations 2
GAMG:  Solving for p, Initial residual = 0.668949, Final residual = 0.0499071, No Iterations 3
time step continuity errors : sum local = 0.000447811, global = 1.68731e-05, cumulative = 6.37969e-05
ExecutionTime = 6.11472 s  ClockTime = 6 s

Time = 19s

DILUPBiCGStab:  Solving for Ux, Initial residual = 0.481575, Final residual = 0.027646, No Iterations 2
DILUPBiCGStab:  Solving for Uy, Initial residual = 0.271668, Final residual = 0.0229341, No Iterations 2
DILUPBiCGStab:  Solving for Uz, Initial residual = 0.270676, Final residual = 0.0194979, No Iterations 2
GAMG:  Solving for p, Initial residual = 0.409496, Final residual = 0.0332294, No Iterations 3
time step continuity errors : sum local = 0.00059487, global = -9.51058e-06, cumulative = 5.42863e-05
ExecutionTime = 6.43339 s  ClockTime = 7 s

Time = 20s

DILUPBiCGStab:  Solving for Ux, Initial residual = 0.510789, Final residual = 0.0342899, No Iterations 2
DILUPBiCGStab:  Solving for Uy, Initial residual = 0.203251, Final residual = 0.00970509, No Iterations 2
DILUPBiCGStab:  Solving for Uz, Initial residual = 0.249963, Final residual = 0.0118969, No Iterations 2
GAMG:  Solving for p, Initial residual = 0.359843, Final residual = 0.0190268, No Iterations 4
time step continuity errors : sum local = 0.000291401, global = -1.40946e-05, cumulative = 4.01917e-05
ExecutionTime = 6.76894 s  ClockTime = 7 s

Time = 21s

DILUPBiCGStab:  Solving for Ux, Initial residual = 0.425636, Final residual = 0.0382419, No Iterations 2
DILUPBiCGStab:  Solving for Uy, Initial residual = 0.30952, Final residual = 0.0265969, No Iterations 2
DILUPBiCGStab:  Solving for Uz, Initial residual = 0.354323, Final residual = 0.0185123, No Iterations 2
GAMG:  Solving for p, Initial residual = 0.721281, Final residual = 0.0421631, No Iterations 3
time step continuity errors : sum local = 0.000284202, global = -5.22599e-06, cumulative = 3.49657e-05
ExecutionTime = 7.0876 s  ClockTime = 7 s

Time = 22s

DILUPBiCGStab:  Solving for Ux, Initial residual = 0.324114, Final residual = 0.0189257, No Iterations 2
DILUPBiCGStab:  Solving for Uy, Initial residual = 0.299683, Final residual = 0.0208647, No Iterations 2
DILUPBiCGStab:  Solving for Uz, Initial residual = 0.26696, Final residual = 0.0188433, No Iterations 2
GAMG:  Solving for p, Initial residual = 0.515324, Final residual = 0.0391742, No Iterations 3
time step continuity errors : sum local = 0.000523881, global = 1.26938e-05, cumulative = 4.76596e-05
ExecutionTime = 7.40569 s  ClockTime = 8 s

Time = 23s

DILUPBiCGStab:  Solving for Ux, Initial residual = 0.130778, Final residual = 0.0126313, No Iterations 2
DILUPBiCGStab:  Solving for Uy, Initial residual = 0.185059, Final residual = 0.0076205, No Iterations 2
DILUPBiCGStab:  Solving for Uz, Initial residual = 0.235208, Final residual = 0.00232902, No Iterations 3
GAMG:  Solving for p, Initial residual = 0.538078, Final residual = 0.0355716, No Iterations 4
time step continuity errors : sum local = 0.000336486, global = -2.23848e-06, cumulative = 4.54211e-05
ExecutionTime = 7.75784 s  ClockTime = 8 s

Time = 24s

DILUPBiCGStab:  Solving for Ux, Initial residual = 0.177006, Final residual = 0.0129911, No Iterations 2
DILUPBiCGStab:  Solving for Uy, Initial residual = 0.216816, Final residual = 0.018477, No Iterations 2
DILUPBiCGStab:  Solving for Uz, Initial residual = 0.30713, Final residual = 0.0185887, No Iterations 2
GAMG:  Solving for p, Initial residual = 0.560367, Final residual = 0.0400641, No Iterations 3
time step continuity errors : sum local = 0.000329581, global = 6.2063e-06, cumulative = 5.16274e-05
ExecutionTime = 8.07606 s  ClockTime = 8 s

Time = 25s

DILUPBiCGStab:  Solving for Ux, Initial residual = 0.393311, Final residual = 0.0232985, No Iterations 2
DILUPBiCGStab:  Solving for Uy, Initial residual = 0.253389, Final residual = 0.0183164, No Iterations 2
DILUPBiCGStab:  Solving for Uz, Initial residual = 0.256086, Final residual = 0.0165306, No Iterations 2
GAMG:  Solving for p, Initial residual = 0.519497, Final residual = 0.0333017, No Iterations 3
time step continuity errors : sum local = 0.000417443, global = -8.89506e-06, cumulative = 4.27323e-05
ExecutionTime = 8.39218 s  ClockTime = 9 s

Time = 26s

DILUPBiCGStab:  Solving for Ux, Initial residual = 0.448857, Final residual = 0.0261607, No Iterations 2
DILUPBiCGStab:  Solving for Uy, Initial residual = 0.207065, Final residual = 0.0129436, No Iterations 2
DILUPBiCGStab:  Solving for Uz, Initial residual = 0.2327, Final residual = 0.0144171, No Iterations 2
GAMG:  Solving for p, Initial residual = 0.455879, Final residual = 0.0306857, No Iterations 4
time step continuity errors : sum local = 0.000341635, global = -4.60533e-06, cumulative = 3.8127e-05
ExecutionTime = 8.71988 s  ClockTime = 9 s

Time = 27s

DILUPBiCGStab:  Solving for Ux, Initial residual = 0.318529, Final residual = 0.024835, No Iterations 2
DILUPBiCGStab:  Solving for Uy, Initial residual = 0.220128, Final residual = 0.0214008, No Iterations 2
DILUPBiCGStab:  Solving for Uz, Initial residual = 0.296075, Final residual = 0.0152184, No Iterations 2
GAMG:  Solving for p, Initial residual = 0.685372, Final residual = 0.0589801, No Iterations 3
time step continuity errors : sum local = 0.000355838, global = -7.81427e-06, cumulative = 3.03127e-05
ExecutionTime = 9.03648 s  ClockTime = 9 s

Time = 28s

DILUPBiCGStab:  Solving for Ux, Initial residual = 0.371765, Final residual = 0.0255673, No Iterations 2
DILUPBiCGStab:  Solving for Uy, Initial residual = 0.280139, Final residual = 0.022044, No Iterations 2
DILUPBiCGStab:  Solving for Uz, Initial residual = 0.257295, Final residual = 0.018597, No Iterations 2
GAMG:  Solving for p, Initial residual = 0.612711, Final residual = 0.0556424, No Iterations 2
time step continuity errors : sum local = 0.000524523, global = 2.9234e-05, cumulative = 5.95467e-05
ExecutionTime = 9.34259 s  ClockTime = 9 s

Time = 29s

DILUPBiCGStab:  Solving for Ux, Initial residual = 0.197279, Final residual = 0.0130524, No Iterations 2
DILUPBiCGStab:  Solving for Uy, Initial residual = 0.201354, Final residual = 0.0117004, No Iterations 2
DILUPBiCGStab:  Solving for Uz, Initial residual = 0.190902, Final residual = 0.0102904, No Iterations 2
GAMG:  Solving for p, Initial residual = 0.588841, Final residual = 0.0349889, No Iterations 4
time step continuity errors : sum local = 0.000308263, global = 4.394e-06, cumulative = 6.39407e-05
ExecutionTime = 9.66946 s  ClockTime = 10 s

Time = 30s

DILUPBiCGStab:  Solving for Ux, Initial residual = 0.133317, Final residual = 0.0103457, No Iterations 2
DILUPBiCGStab:  Solving for Uy, Initial residual = 0.183052, Final residual = 0.0120491, No Iterations 2
DILUPBiCGStab:  Solving for Uz, Initial residual = 0.247884, Final residual = 0.0206679, No Iterations 2
GAMG:  Solving for p, Initial residual = 0.527807, Final residual = 0.026337, No Iterations 4
time step continuity errors : sum local = 0.000197387, global = 8.97671e-06, cumulative = 7.29174e-05
ExecutionTime = 10.004 s  ClockTime = 10 s

Time = 31s

DILUPBiCGStab:  Solving for Ux, Initial residual = 0.307548, Final residual = 0.020153, No Iterations 2
DILUPBiCGStab:  Solving for Uy, Initial residual = 0.235426, Final residual = 0.0183729, No Iterations 2
DILUPBiCGStab:  Solving for Uz, Initial residual = 0.253145, Final residual = 0.0169407, No Iterations 2
GAMG:  Solving for p, Initial residual = 0.535603, Final residual = 0.0447157, No Iterations 2
time step continuity errors : sum local = 0.000450004, global = -2.3146e-05, cumulative = 4.97715e-05
ExecutionTime = 10.3172 s  ClockTime = 10 s

Time = 32s

DILUPBiCGStab:  Solving for Ux, Initial residual = 0.37326, Final residual = 0.0232067, No Iterations 2
DILUPBiCGStab:  Solving for Uy, Initial residual = 0.202707, Final residual = 0.0149586, No Iterations 2
DILUPBiCGStab:  Solving for Uz, Initial residual = 0.195673, Final residual = 0.0125765, No Iterations 2
GAMG:  Solving for p, Initial residual = 0.514127, Final residual = 0.0276365, No Iterations 4
time step continuity errors : sum local = 0.000301783, global = -1.40906e-05, cumulative = 3.56808e-05
ExecutionTime = 10.6443 s  ClockTime = 11 s

Time = 33s

DILUPBiCGStab:  Solving for Ux, Initial residual = 0.226874, Final residual = 0.0146365, No Iterations 2
DILUPBiCGStab:  Solving for Uy, Initial residual = 0.178634, Final residual = 0.0120323, No Iterations 2
DILUPBiCGStab:  Solving for Uz, Initial residual = 0.253514, Final residual = 0.0156548, No Iterations 2
GAMG:  Solving for p, Initial residual = 0.602264, Final residual = 0.0381016, No Iterations 4
time step continuity errors : sum local = 0.000244543, global = -1.21394e-06, cumulative = 3.44669e-05
ExecutionTime = 10.9811 s  ClockTime = 11 s

Time = 34s

DILUPBiCGStab:  Solving for Ux, Initial residual = 0.374879, Final residual = 0.0289015, No Iterations 2
DILUPBiCGStab:  Solving for Uy, Initial residual = 0.263891, Final residual = 0.0233741, No Iterations 2
DILUPBiCGStab:  Solving for Uz, Initial residual = 0.261572, Final residual = 0.0132499, No Iterations 2
GAMG:  Solving for p, Initial residual = 0.610147, Final residual = 0.0507656, No Iterations 2
time step continuity errors : sum local = 0.000406856, global = 1.6079e-05, cumulative = 5.05459e-05
ExecutionTime = 11.2953 s  ClockTime = 11 s

Time = 35s

DILUPBiCGStab:  Solving for Ux, Initial residual = 0.25699, Final residual = 0.0149709, No Iterations 2
DILUPBiCGStab:  Solving for Uy, Initial residual = 0.215333, Final residual = 0.0145953, No Iterations 2
DILUPBiCGStab:  Solving for Uz, Initial residual = 0.176475, Final residual = 0.0118846, No Iterations 2
GAMG:  Solving for p, Initial residual = 0.652497, Final residual = 0.0590805, No Iterations 3
time step continuity errors : sum local = 0.000538287, global = 1.85211e-05, cumulative = 6.9067e-05
ExecutionTime = 11.6124 s  ClockTime = 12 s

Time = 36s

DILUPBiCGStab:  Solving for Ux, Initial residual = 0.139293, Final residual = 0.010073, No Iterations 2
DILUPBiCGStab:  Solving for Uy, Initial residual = 0.171746, Final residual = 0.0101193, No Iterations 2
DILUPBiCGStab:  Solving for Uz, Initial residual = 0.223943, Final residual = 0.0104912, No Iterations 2
GAMG:  Solving for p, Initial residual = 0.550013, Final residual = 0.033899, No Iterations 4
time step continuity errors : sum local = 0.000280624, global = 8.45045e-06, cumulative = 7.75174e-05
ExecutionTime = 11.9424 s  ClockTime = 12 s

Time = 37s

DILUPBiCGStab:  Solving for Ux, Initial residual = 0.242703, Final residual = 0.0185569, No Iterations 2
DILUPBiCGStab:  Solving for Uy, Initial residual = 0.248045, Final residual = 0.0170065, No Iterations 2
DILUPBiCGStab:  Solving for Uz, Initial residual = 0.287232, Final residual = 0.00252155, No Iterations 3
GAMG:  Solving for p, Initial residual = 0.460526, Final residual = 0.0431039, No Iterations 2
time step continuity errors : sum local = 0.000427649, global = -9.09612e-06, cumulative = 6.84213e-05
ExecutionTime = 12.2644 s  ClockTime = 12 s

Time = 38s

DILUPBiCGStab:  Solving for Ux, Initial residual = 0.2988, Final residual = 0.019275, No Iterations 2
DILUPBiCGStab:  Solving for Uy, Initial residual = 0.238142, Final residual = 0.0210727, No Iterations 2
DILUPBiCGStab:  Solving for Uz, Initial residual = 0.226204, Final residual = 0.021921, No Iterations 2
GAMG:  Solving for p, Initial residual = 0.551714, Final residual = 0.0468928, No Iterations 3
time step continuity errors : sum local = 0.000547923, global = -2.00003e-05, cumulative = 4.8421e-05
ExecutionTime = 12.5839 s  ClockTime = 13 s

Time = 39s

DILUPBiCGStab:  Solving for Ux, Initial residual = 0.243142, Final residual = 0.0203381, No Iterations 2
DILUPBiCGStab:  Solving for Uy, Initial residual = 0.201235, Final residual = 0.0147941, No Iterations 2
DILUPBiCGStab:  Solving for Uz, Initial residual = 0.258519, Final residual = 0.0110071, No Iterations 2
GAMG:  Solving for p, Initial residual = 0.69284, Final residual = 0.0451555, No Iterations 4
time step continuity errors : sum local = 0.000324198, global = -6.09637e-06, cumulative = 4.23247e-05
ExecutionTime = 12.9133 s  ClockTime = 13 s

Time = 40s

DILUPBiCGStab:  Solving for Ux, Initial residual = 0.304308, Final residual = 0.0220543, No Iterations 2
DILUPBiCGStab:  Solving for Uy, Initial residual = 0.248848, Final residual = 0.0159105, No Iterations 2
DILUPBiCGStab:  Solving for Uz, Initial residual = 0.30405, Final residual = 0.029642, No Iterations 2
GAMG:  Solving for p, Initial residual = 0.50213, Final residual = 0.0337992, No Iterations 3
time step continuity errors : sum local = 0.000308867, global = -2.78924e-06, cumulative = 3.95354e-05
ExecutionTime = 13.233 s  ClockTime = 13 s

Time = 41s

DILUPBiCGStab:  Solving for Ux, Initial residual = 0.370678, Final residual = 0.0288206, No Iterations 2
DILUPBiCGStab:  Solving for Uy, Initial residual = 0.292432, Final residual = 0.0264518, No Iterations 2
DILUPBiCGStab:  Solving for Uz, Initial residual = 0.273873, Final residual = 0.0100677, No Iterations 2
GAMG:  Solving for p, Initial residual = 0.580456, Final residual = 0.0483176, No Iterations 3
time step continuity errors : sum local = 0.000522579, global = 1.08945e-05, cumulative = 5.04299e-05
ExecutionTime = 13.5582 s  ClockTime = 14 s

Time = 42s

DILUPBiCGStab:  Solving for Ux, Initial residual = 0.208137, Final residual = 0.0156932, No Iterations 2
DILUPBiCGStab:  Solving for Uy, Initial residual = 0.211444, Final residual = 0.0157589, No Iterations 2
DILUPBiCGStab:  Solving for Uz, Initial residual = 0.233062, Final residual = 0.013071, No Iterations 2
GAMG:  Solving for p, Initial residual = 0.625661, Final residual = 0.0368997, No Iterations 4
time step continuity errors : sum local = 0.000341767, global = 5.57996e-06, cumulative = 5.60099e-05
ExecutionTime = 13.891 s  ClockTime = 14 s

Time = 43s

DILUPBiCGStab:  Solving for Ux, Initial residual = 0.218874, Final residual = 0.014473, No Iterations 2
DILUPBiCGStab:  Solving for Uy, Initial residual = 0.215891, Final residual = 0.0118666, No Iterations 2
DILUPBiCGStab:  Solving for Uz, Initial residual = 0.288643, Final residual = 0.0194471, No Iterations 2
GAMG:  Solving for p, Initial residual = 0.450755, Final residual = 0.0362049, No Iterations 3
time step continuity errors : sum local = 0.000419962, global = -3.15444e-06, cumulative = 5.28555e-05
ExecutionTime = 14.211 s  ClockTime = 14 s

Time = 44s

DILUPBiCGStab:  Solving for Ux, Initial residual = 0.2949, Final residual = 0.0224061, No Iterations 2
DILUPBiCGStab:  Solving for Uy, Initial residual = 0.281804, Final residual = 0.0253813, No Iterations 2
DILUPBiCGStab:  Solving for Uz, Initial residual = 0.298398, Final residual = 0.0240209, No Iterations 2
GAMG:  Solving for p, Initial residual = 0.522817, Final residual = 0.0467123, No Iterations 3
time step continuity errors : sum local = 0.000505926, global = -9.45772e-06, cumulative = 4.33977e-05
ExecutionTime = 14.5292 s  ClockTime = 15 s

Time = 45s

DILUPBiCGStab:  Solving for Ux, Initial residual = 0.243247, Final residual = 0.0189031, No Iterations 2
DILUPBiCGStab:  Solving for Uy, Initial residual = 0.236853, Final residual = 0.0186853, No Iterations 2
DILUPBiCGStab:  Solving for Uz, Initial residual = 0.235826, Final residual = 0.0170803, No Iterations 2
GAMG:  Solving for p, Initial residual = 0.644677, Final residual = 0.0567105, No Iterations 3
time step continuity errors : sum local = 0.00054791, global = -1.48885e-05, cumulative = 2.85092e-05
ExecutionTime = 14.8477 s  ClockTime = 15 s

Time = 46s

DILUPBiCGStab:  Solving for Ux, Initial residual = 0.226359, Final residual = 0.0148184, No Iterations 2
DILUPBiCGStab:  Solving for Uy, Initial residual = 0.189436, Final residual = 0.00200676, No Iterations 3
DILUPBiCGStab:  Solving for Uz, Initial residual = 0.233452, Final residual = 0.0115959, No Iterations 2
GAMG:  Solving for p, Initial residual = 0.501115, Final residual = 0.0415274, No Iterations 3
time step continuity errors : sum local = 0.000408451, global = -1.15299e-06, cumulative = 2.73562e-05
ExecutionTime = 15.1797 s  ClockTime = 15 s

Time = 47s

DILUPBiCGStab:  Solving for Ux, Initial residual = 0.326848, Final residual = 0.0238099, No Iterations 2
DILUPBiCGStab:  Solving for Uy, Initial residual = 0.268779, Final residual = 0.0227751, No Iterations 2
DILUPBiCGStab:  Solving for Uz, Initial residual = 0.278545, Final residual = 0.0178405, No Iterations 2
GAMG:  Solving for p, Initial residual = 0.497133, Final residual = 0.0434705, No Iterations 3
time step continuity errors : sum local = 0.000409451, global = 8.45347e-06, cumulative = 3.58097e-05
ExecutionTime = 15.4979 s  ClockTime = 16 s

Time = 48s

DILUPBiCGStab:  Solving for Ux, Initial residual = 0.279279, Final residual = 0.0207677, No Iterations 2
DILUPBiCGStab:  Solving for Uy, Initial residual = 0.27614, Final residual = 0.0222192, No Iterations 2
DILUPBiCGStab:  Solving for Uz, Initial residual = 0.259541, Final residual = 0.0205143, No Iterations 2
GAMG:  Solving for p, Initial residual = 0.634032, Final residual = 0.0387912, No Iterations 4
time step continuity errors : sum local = 0.000365952, global = 1.4159e-05, cumulative = 4.99687e-05
ExecutionTime = 15.8278 s  ClockTime = 16 s

Time = 49s

DILUPBiCGStab:  Solving for Ux, Initial residual = 0.220372, Final residual = 0.0148095, No Iterations 2
DILUPBiCGStab:  Solving for Uy, Initial residual = 0.184415, Final residual = 0.0121054, No Iterations 2
DILUPBiCGStab:  Solving for Uz, Initial residual = 0.236238, Final residual = 0.0189703, No Iterations 2
GAMG:  Solving for p, Initial residual = 0.460091, Final residual = 0.0362761, No Iterations 3
time step continuity errors : sum local = 0.000440756, global = -9.29912e-06, cumulative = 4.06696e-05
ExecutionTime = 16.1463 s  ClockTime = 16 s

Time = 50s

DILUPBiCGStab:  Solving for Ux, Initial residual = 0.23461, Final residual = 0.0197597, No Iterations 2
DILUPBiCGStab:  Solving for Uy, Initial residual = 0.220941, Final residual = 0.0167335, No Iterations 2
DILUPBiCGStab:  Solving for Uz, Initial residual = 0.264433, Final residual = 0.0184336, No Iterations 2
GAMG:  Solving for p, Initial residual = 0.440431, Final residual = 0.0213765, No Iterations 4
time step continuity errors : sum local = 0.000251508, global = -6.41847e-07, cumulative = 4.00277e-05
ExecutionTime = 16.4765 s  ClockTime = 17 s

Time = 51s

DILUPBiCGStab:  Solving for Ux, Initial residual = 0.239627, Final residual = 0.0169699, No Iterations 2
DILUPBiCGStab:  Solving for Uy, Initial residual = 0.289827, Final residual = 0.0217663, No Iterations 2
DILUPBiCGStab:  Solving for Uz, Initial residual = 0.289981, Final residual = 0.0212767, No Iterations 2
GAMG:  Solving for p, Initial residual = 0.602851, Final residual = 0.0463621, No Iterations 3
time step continuity errors : sum local = 0.000470606, global = -9.95058e-06, cumulative = 3.00771e-05
ExecutionTime = 16.7953 s  ClockTime = 17 s

Time = 52s

DILUPBiCGStab:  Solving for Ux, Initial residual = 0.267326, Final residual = 0.0183768, No Iterations 2
DILUPBiCGStab:  Solving for Uy, Initial residual = 0.237171, Final residual = 0.0146947, No Iterations 2
DILUPBiCGStab:  Solving for Uz, Initial residual = 0.233503, Final residual = 0.011891, No Iterations 2
GAMG:  Solving for p, Initial residual = 0.476869, Final residual = 0.0375913, No Iterations 3
time step continuity errors : sum local = 0.000453195, global = 1.20061e-06, cumulative = 3.12777e-05
ExecutionTime = 17.1149 s  ClockTime = 17 s

Time = 53s

DILUPBiCGStab:  Solving for Ux, Initial residual = 0.270813, Final residual = 0.0183266, No Iterations 2
DILUPBiCGStab:  Solving for Uy, Initial residual = 0.221903, Final residual = 0.0152606, No Iterations 2
DILUPBiCGStab:  Solving for Uz, Initial residual = 0.234558, Final residual = 0.0134275, No Iterations 2
GAMG:  Solving for p, Initial residual = 0.450619, Final residual = 0.0272919, No Iterations 4
time step continuity errors : sum local = 0.00026205, global = 3.74808e-06, cumulative = 3.50258e-05
ExecutionTime = 17.4437 s  ClockTime = 18 s

Time = 54s

DILUPBiCGStab:  Solving for Ux, Initial residual = 0.292751, Final residual = 0.019374, No Iterations 2
DILUPBiCGStab:  Solving for Uy, Initial residual = 0.298513, Final residual = 0.021458, No Iterations 2
DILUPBiCGStab:  Solving for Uz, Initial residual = 0.291173, Final residual = 0.0226661, No Iterations 2
GAMG:  Solving for p, Initial residual = 0.536057, Final residual = 0.0448743, No Iterations 3
time step continuity errors : sum local = 0.000445486, global = 6.34453e-06, cumulative = 4.13704e-05
ExecutionTime = 17.763 s  ClockTime = 18 s

Time = 55s

DILUPBiCGStab:  Solving for Ux, Initial residual = 0.28004, Final residual = 0.0172473, No Iterations 2
DILUPBiCGStab:  Solving for Uy, Initial residual = 0.223084, Final residual = 0.0205186, No Iterations 2
DILUPBiCGStab:  Solving for Uz, Initial residual = 0.21841, Final residual = 0.0141979, No Iterations 2
GAMG:  Solving for p, Initial residual = 0.409209, Final residual = 0.027225, No Iterations 3
time step continuity errors : sum local = 0.000401798, global = -5.80139e-06, cumulative = 3.5569e-05
ExecutionTime = 18.0819 s  ClockTime = 18 s

Time = 56s

DILUPBiCGStab:  Solving for Ux, Initial residual = 0.217518, Final residual = 0.0137164, No Iterations 2
DILUPBiCGStab:  Solving for Uy, Initial residual = 0.173012, Final residual = 0.0167102, No Iterations 2
DILUPBiCGStab:  Solving for Uz, Initial residual = 0.20992, Final residual = 0.0129282, No Iterations 2
GAMG:  Solving for p, Initial residual = 0.37494, Final residual = 0.0221827, No Iterations 4
time step continuity errors : sum local = 0.000315575, global = -5.9329e-06, cumulative = 2.96361e-05
ExecutionTime = 18.4105 s  ClockTime = 19 s

Time = 57s

DILUPBiCGStab:  Solving for Ux, Initial residual = 0.187714, Final residual = 0.0147727, No Iterations 2
DILUPBiCGStab:  Solving for Uy, Initial residual = 0.272232, Final residual = 0.0258671, No Iterations 2
DILUPBiCGStab:  Solving for Uz, Initial residual = 0.283726, Final residual = 0.0223824, No Iterations 2
GAMG:  Solving for p, Initial residual = 0.570859, Final residual = 0.0545989, No Iterations 3
time step continuity errors : sum local = 0.00048028, global = -4.83547e-06, cumulative = 2.48006e-05
ExecutionTime = 18.7295 s  ClockTime = 19 s

Time = 58s

DILUPBiCGStab:  Solving for Ux, Initial residual = 0.28518, Final residual = 0.0180271, No Iterations 2
DILUPBiCGStab:  Solving for Uy, Initial residual = 0.254607, Final residual = 0.0182428, No Iterations 2
DILUPBiCGStab:  Solving for Uz, Initial residual = 0.215024, Final residual = 0.017038, No Iterations 2
GAMG:  Solving for p, Initial residual = 0.423378, Final residual = 0.0295563, No Iterations 3
time step continuity errors : sum local = 0.000462668, global = 3.753e-06, cumulative = 2.85536e-05
ExecutionTime = 19.0469 s  ClockTime = 19 s

Time = 59s

DILUPBiCGStab:  Solving for Ux, Initial residual = 0.269696, Final residual = 0.0167041, No Iterations 2
DILUPBiCGStab:  Solving for Uy, Initial residual = 0.183093, Final residual = 0.0116216, No Iterations 2
DILUPBiCGStab:  Solving for Uz, Initial residual = 0.17641, Final residual = 0.0107951, No Iterations 2
GAMG:  Solving for p, Initial residual = 0.393392, Final residual = 0.0258022, No Iterations 4
time step continuity errors : sum local = 0.000321188, global = 4.10109e-06, cumulative = 3.26547e-05
ExecutionTime = 19.3814 s  ClockTime = 20 s

Time = 60s

DILUPBiCGStab:  Solving for Ux, Initial residual = 0.237339, Final residual = 0.018507, No Iterations 2
DILUPBiCGStab:  Solving for Uy, Initial residual = 0.260962, Final residual = 0.0226524, No Iterations 2
DILUPBiCGStab:  Solving for Uz, Initial residual = 0.248687, Final residual = 0.0178266, No Iterations 2
GAMG:  Solving for p, Initial residual = 0.523564, Final residual = 0.0473977, No Iterations 3
time step continuity errors : sum local = 0.000375509, global = 4.67058e-06, cumulative = 3.73253e-05
ExecutionTime = 19.6992 s  ClockTime = 20 s

Time = 61s

DILUPBiCGStab:  Solving for Ux, Initial residual = 0.289323, Final residual = 0.0194676, No Iterations 2
DILUPBiCGStab:  Solving for Uy, Initial residual = 0.261897, Final residual = 0.00800511, No Iterations 2
DILUPBiCGStab:  Solving for Uz, Initial residual = 0.220317, Final residual = 0.0161474, No Iterations 2
GAMG:  Solving for p, Initial residual = 0.41353, Final residual = 0.029712, No Iterations 3
time step continuity errors : sum local = 0.000425219, global = -6.29445e-06, cumulative = 3.10308e-05
ExecutionTime = 20.0251 s  ClockTime = 20 s

Time = 62s

DILUPBiCGStab:  Solving for Ux, Initial residual = 0.185568, Final residual = 0.0119995, No Iterations 2
DILUPBiCGStab:  Solving for Uy, Initial residual = 0.164938, Final residual = 0.00347321, No Iterations 3
DILUPBiCGStab:  Solving for Uz, Initial residual = 0.174684, Final residual = 0.00755625, No Iterations 2
GAMG:  Solving for p, Initial residual = 0.399608, Final residual = 0.0276405, No Iterations 4
time step continuity errors : sum local = 0.000346955, global = -4.63714e-06, cumulative = 2.63937e-05
ExecutionTime = 20.3732 s  ClockTime = 21 s

Time = 63s

DILUPBiCGStab:  Solving for Ux, Initial residual = 0.154758, Final residual = 0.0112864, No Iterations 2
DILUPBiCGStab:  Solving for Uy, Initial residual = 0.210748, Final residual = 0.0190738, No Iterations 2
DILUPBiCGStab:  Solving for Uz, Initial residual = 0.228213, Final residual = 0.0138347, No Iterations 2
GAMG:  Solving for p, Initial residual = 0.461018, Final residual = 0.041418, No Iterations 3
time step continuity errors : sum local = 0.000370939, global = -2.95471e-06, cumulative = 2.3439e-05
ExecutionTime = 20.6921 s  ClockTime = 21 s

Time = 64s

DILUPBiCGStab:  Solving for Ux, Initial residual = 0.277624, Final residual = 0.0153305, No Iterations 2
DILUPBiCGStab:  Solving for Uy, Initial residual = 0.264482, Final residual = 0.018836, No Iterations 2
DILUPBiCGStab:  Solving for Uz, Initial residual = 0.207303, Final residual = 0.0149172, No Iterations 2
GAMG:  Solving for p, Initial residual = 0.368488, Final residual = 0.0240374, No Iterations 3
time step continuity errors : sum local = 0.000370535, global = 1.6373e-05, cumulative = 3.9812e-05
ExecutionTime = 21.0115 s  ClockTime = 21 s

Time = 65s

DILUPBiCGStab:  Solving for Ux, Initial residual = 0.249093, Final residual = 0.0153222, No Iterations 2
DILUPBiCGStab:  Solving for Uy, Initial residual = 0.182972, Final residual = 0.0117486, No Iterations 2
DILUPBiCGStab:  Solving for Uz, Initial residual = 0.15683, Final residual = 0.0112614, No Iterations 2
GAMG:  Solving for p, Initial residual = 0.393224, Final residual = 0.0276467, No Iterations 4
time step continuity errors : sum local = 0.00030773, global = 4.24549e-06, cumulative = 4.40575e-05
ExecutionTime = 21.3421 s  ClockTime = 21 s

Time = 66s

DILUPBiCGStab:  Solving for Ux, Initial residual = 0.210025, Final residual = 0.0141862, No Iterations 2
DILUPBiCGStab:  Solving for Uy, Initial residual = 0.197754, Final residual = 0.0152457, No Iterations 2
DILUPBiCGStab:  Solving for Uz, Initial residual = 0.191321, Final residual = 0.0136505, No Iterations 2
GAMG:  Solving for p, Initial residual = 0.419756, Final residual = 0.0352972, No Iterations 3
time step continuity errors : sum local = 0.000315927, global = 7.42857e-07, cumulative = 4.48004e-05
ExecutionTime = 21.6619 s  ClockTime = 22 s

Time = 67s

DILUPBiCGStab:  Solving for Ux, Initial residual = 0.279329, Final residual = 0.0155948, No Iterations 2
DILUPBiCGStab:  Solving for Uy, Initial residual = 0.246206, Final residual = 0.0173791, No Iterations 2
DILUPBiCGStab:  Solving for Uz, Initial residual = 0.177667, Final residual = 0.0126527, No Iterations 2
GAMG:  Solving for p, Initial residual = 0.353469, Final residual = 0.0197687, No Iterations 3
time step continuity errors : sum local = 0.000273144, global = -1.28445e-05, cumulative = 3.19559e-05
ExecutionTime = 21.9798 s  ClockTime = 22 s

Time = 68s

DILUPBiCGStab:  Solving for Ux, Initial residual = 0.190984, Final residual = 0.0119494, No Iterations 2
DILUPBiCGStab:  Solving for Uy, Initial residual = 0.172766, Final residual = 0.0125269, No Iterations 2
DILUPBiCGStab:  Solving for Uz, Initial residual = 0.143753, Final residual = 0.0107139, No Iterations 2
GAMG:  Solving for p, Initial residual = 0.367111, Final residual = 0.0219482, No Iterations 4
time step continuity errors : sum local = 0.000273794, global = -2.05943e-06, cumulative = 2.98964e-05
ExecutionTime = 22.3086 s  ClockTime = 22 s

Time = 69s

DILUPBiCGStab:  Solving for Ux, Initial residual = 0.119661, Final residual = 0.00838163, No Iterations 2
DILUPBiCGStab:  Solving for Uy, Initial residual = 0.160366, Final residual = 0.0129573, No Iterations 2
DILUPBiCGStab:  Solving for Uz, Initial residual = 0.174012, Final residual = 0.0108752, No Iterations 2
GAMG:  Solving for p, Initial residual = 0.501534, Final residual = 0.0499942, No Iterations 3
time step continuity errors : sum local = 0.000359062, global = -1.88223e-06, cumulative = 2.80142e-05
ExecutionTime = 22.6281 s  ClockTime = 23 s

Time = 70s

DILUPBiCGStab:  Solving for Ux, Initial residual = 0.202883, Final residual = 0.0113681, No Iterations 2
DILUPBiCGStab:  Solving for Uy, Initial residual = 0.218335, Final residual = 0.0163936, No Iterations 2
DILUPBiCGStab:  Solving for Uz, Initial residual = 0.164667, Final residual = 0.0124716, No Iterations 2
GAMG:  Solving for p, Initial residual = 0.359797, Final residual = 0.0349416, No Iterations 2
time step continuity errors : sum local = 0.000430919, global = 1.44146e-05, cumulative = 4.24288e-05
ExecutionTime = 22.9362 s  ClockTime = 23 s

Time = 71s

DILUPBiCGStab:  Solving for Ux, Initial residual = 0.209772, Final residual = 0.0127827, No Iterations 2
DILUPBiCGStab:  Solving for Uy, Initial residual = 0.17883, Final residual = 0.0146472, No Iterations 2
DILUPBiCGStab:  Solving for Uz, Initial residual = 0.125463, Final residual = 0.00946009, No Iterations 2
GAMG:  Solving for p, Initial residual = 0.375963, Final residual = 0.0215198, No Iterations 4
time step continuity errors : sum local = 0.000234997, global = 4.50785e-06, cumulative = 4.69367e-05
ExecutionTime = 23.2642 s  ClockTime = 23 s

Time = 72s

DILUPBiCGStab:  Solving for Ux, Initial residual = 0.156906, Final residual = 0.0105927, No Iterations 2
DILUPBiCGStab:  Solving for Uy, Initial residual = 0.149804, Final residual = 0.011394, No Iterations 2
DILUPBiCGStab:  Solving for Uz, Initial residual = 0.151012, Final residual = 0.0104978, No Iterations 2
GAMG:  Solving for p, Initial residual = 0.447752, Final residual = 0.0423218, No Iterations 3
time step continuity errors : sum local = 0.000309844, global = 3.43151e-06, cumulative = 5.03682e-05
ExecutionTime = 23.5824 s  ClockTime = 24 s

Time = 73s

DILUPBiCGStab:  Solving for Ux, Initial residual = 0.219766, Final residual = 0.0126824, No Iterations 2
DILUPBiCGStab:  Solving for Uy, Initial residual = 0.19404, Final residual = 0.0141708, No Iterations 2
DILUPBiCGStab:  Solving for Uz, Initial residual = 0.135816, Final residual = 0.00973235, No Iterations 2
GAMG:  Solving for p, Initial residual = 0.330221, Final residual = 0.0326148, No Iterations 2
time step continuity errors : sum local = 0.000383795, global = -1.31735e-05, cumulative = 3.71946e-05
ExecutionTime = 23.8904 s  ClockTime = 24 s

Time = 74s

DILUPBiCGStab:  Solving for Ux, Initial residual = 0.169227, Final residual = 0.00967344, No Iterations 2
DILUPBiCGStab:  Solving for Uy, Initial residual = 0.169329, Final residual = 0.0114904, No Iterations 2
DILUPBiCGStab:  Solving for Uz, Initial residual = 0.107272, Final residual = 0.00753992, No Iterations 2
GAMG:  Solving for p, Initial residual = 0.337511, Final residual = 0.033409, No Iterations 3
time step continuity errors : sum local = 0.000390245, global = -5.41571e-06, cumulative = 3.17789e-05
ExecutionTime = 24.2111 s  ClockTime = 24 s

Time = 75s

DILUPBiCGStab:  Solving for Ux, Initial residual = 0.0962184, Final residual = 0.00612304, No Iterations 2
DILUPBiCGStab:  Solving for Uy, Initial residual = 0.132853, Final residual = 0.00855347, No Iterations 2
DILUPBiCGStab:  Solving for Uz, Initial residual = 0.129459, Final residual = 0.00165183, No Iterations 3
GAMG:  Solving for p, Initial residual = 0.622832, Final residual = 0.0317496, No Iterations 4
time step continuity errors : sum local = 0.000163463, global = -4.15578e-07, cumulative = 3.13633e-05
ExecutionTime = 24.5537 s  ClockTime = 25 s

Time = 76s

DILUPBiCGStab:  Solving for Ux, Initial residual = 0.157755, Final residual = 0.00929845, No Iterations 2
DILUPBiCGStab:  Solving for Uy, Initial residual = 0.181352, Final residual = 0.0137081, No Iterations 2
DILUPBiCGStab:  Solving for Uz, Initial residual = 0.131915, Final residual = 0.00979459, No Iterations 2
GAMG:  Solving for p, Initial residual = 0.341021, Final residual = 0.0299289, No Iterations 2
time step continuity errors : sum local = 0.000321075, global = 1.44221e-05, cumulative = 4.57854e-05
ExecutionTime = 24.8609 s  ClockTime = 25 s

Time = 77s

DILUPBiCGStab:  Solving for Ux, Initial residual = 0.161918, Final residual = 0.0090099, No Iterations 2
DILUPBiCGStab:  Solving for Uy, Initial residual = 0.154092, Final residual = 0.0099831, No Iterations 2
DILUPBiCGStab:  Solving for Uz, Initial residual = 0.0934133, Final residual = 0.00664184, No Iterations 2
GAMG:  Solving for p, Initial residual = 0.357647, Final residual = 0.0323996, No Iterations 3
time step continuity errors : sum local = 0.000341428, global = 4.35641e-06, cumulative = 5.01418e-05
ExecutionTime = 25.1781 s  ClockTime = 25 s

Time = 78s

DILUPBiCGStab:  Solving for Ux, Initial residual = 0.101013, Final residual = 0.0069611, No Iterations 2
DILUPBiCGStab:  Solving for Uy, Initial residual = 0.123184, Final residual = 0.00849985, No Iterations 2
DILUPBiCGStab:  Solving for Uz, Initial residual = 0.112231, Final residual = 0.0076298, No Iterations 2
GAMG:  Solving for p, Initial residual = 0.601848, Final residual = 0.0305477, No Iterations 4
time step continuity errors : sum local = 0.000148864, global = 5.34832e-06, cumulative = 5.54901e-05
ExecutionTime = 25.5083 s  ClockTime = 26 s

Time = 79s

DILUPBiCGStab:  Solving for Ux, Initial residual = 0.192611, Final residual = 0.0119225, No Iterations 2
DILUPBiCGStab:  Solving for Uy, Initial residual = 0.163868, Final residual = 0.0125188, No Iterations 2
DILUPBiCGStab:  Solving for Uz, Initial residual = 0.119964, Final residual = 0.0098157, No Iterations 2
GAMG:  Solving for p, Initial residual = 0.311264, Final residual = 0.0273682, No Iterations 2
time step continuity errors : sum local = 0.00030131, global = -9.91447e-06, cumulative = 4.55757e-05
ExecutionTime = 25.8176 s  ClockTime = 26 s

Time = 80s

DILUPBiCGStab:  Solving for Ux, Initial residual = 0.154785, Final residual = 0.008055, No Iterations 2
DILUPBiCGStab:  Solving for Uy, Initial residual = 0.15036, Final residual = 0.0101895, No Iterations 2
DILUPBiCGStab:  Solving for Uz, Initial residual = 0.0865052, Final residual = 0.00595061, No Iterations 2
GAMG:  Solving for p, Initial residual = 0.301068, Final residual = 0.0256757, No Iterations 3
time step continuity errors : sum local = 0.000300241, global = -5.53567e-06, cumulative = 4.004e-05
ExecutionTime = 26.1377 s  ClockTime = 26 s

Time = 81s

DILUPBiCGStab:  Solving for Ux, Initial residual = 0.0776478, Final residual = 0.00717219, No Iterations 2
DILUPBiCGStab:  Solving for Uy, Initial residual = 0.128355, Final residual = 0.00945935, No Iterations 2
DILUPBiCGStab:  Solving for Uz, Initial residual = 0.100627, Final residual = 0.00758252, No Iterations 2
GAMG:  Solving for p, Initial residual = 0.48471, Final residual = 0.0238116, No Iterations 4
time step continuity errors : sum local = 0.000140664, global = -2.66318e-06, cumulative = 3.73768e-05
ExecutionTime = 26.4662 s  ClockTime = 27 s

Time = 82s

DILUPBiCGStab:  Solving for Ux, Initial residual = 0.127272, Final residual = 0.0074913, No Iterations 2
DILUPBiCGStab:  Solving for Uy, Initial residual = 0.1542, Final residual = 0.0122584, No Iterations 2
DILUPBiCGStab:  Solving for Uz, Initial residual = 0.106204, Final residual = 0.00775388, No Iterations 2
GAMG:  Solving for p, Initial residual = 0.347821, Final residual = 0.0299251, No Iterations 2
time step continuity errors : sum local = 0.000271623, global = 4.68747e-06, cumulative = 4.20643e-05
ExecutionTime = 26.7748 s  ClockTime = 27 s

Time = 83s

DILUPBiCGStab:  Solving for Ux, Initial residual = 0.123715, Final residual = 0.00675477, No Iterations 2
DILUPBiCGStab:  Solving for Uy, Initial residual = 0.130891, Final residual = 0.00840993, No Iterations 2
DILUPBiCGStab:  Solving for Uz, Initial residual = 0.0751378, Final residual = 0.00527184, No Iterations 2
GAMG:  Solving for p, Initial residual = 0.343698, Final residual = 0.0253893, No Iterations 3
time step continuity errors : sum local = 0.000232496, global = 5.73052e-06, cumulative = 4.77948e-05
ExecutionTime = 27.0942 s  ClockTime = 27 s

Time = 84s

DILUPBiCGStab:  Solving for Ux, Initial residual = 0.0689716, Final residual = 0.0047114, No Iterations 2
DILUPBiCGStab:  Solving for Uy, Initial residual = 0.105991, Final residual = 0.00797534, No Iterations 2
DILUPBiCGStab:  Solving for Uz, Initial residual = 0.0825804, Final residual = 0.00569989, No Iterations 2
GAMG:  Solving for p, Initial residual = 0.567692, Final residual = 0.0516722, No Iterations 3
time step continuity errors : sum local = 0.000228323, global = 6.60359e-06, cumulative = 5.43984e-05
ExecutionTime = 27.4134 s  ClockTime = 28 s

Time = 85s

DILUPBiCGStab:  Solving for Ux, Initial residual = 0.123418, Final residual = 0.00672432, No Iterations 2
DILUPBiCGStab:  Solving for Uy, Initial residual = 0.12482, Final residual = 0.00910131, No Iterations 2
DILUPBiCGStab:  Solving for Uz, Initial residual = 0.0867145, Final residual = 0.00606096, No Iterations 2
GAMG:  Solving for p, Initial residual = 0.341568, Final residual = 0.0340931, No Iterations 2
time step continuity errors : sum local = 0.00026795, global = -3.50787e-07, cumulative = 5.40476e-05
ExecutionTime = 27.7214 s  ClockTime = 28 s

Time = 86s

DILUPBiCGStab:  Solving for Ux, Initial residual = 0.107826, Final residual = 0.00594008, No Iterations 2
DILUPBiCGStab:  Solving for Uy, Initial residual = 0.121949, Final residual = 0.00831363, No Iterations 2
DILUPBiCGStab:  Solving for Uz, Initial residual = 0.0665603, Final residual = 0.00468992, No Iterations 2
GAMG:  Solving for p, Initial residual = 0.310432, Final residual = 0.0225364, No Iterations 3
time step continuity errors : sum local = 0.000186858, global = -5.35919e-07, cumulative = 5.35117e-05
ExecutionTime = 28.0416 s  ClockTime = 28 s

Time = 87s

DILUPBiCGStab:  Solving for Ux, Initial residual = 0.0716063, Final residual = 0.00458036, No Iterations 2
DILUPBiCGStab:  Solving for Uy, Initial residual = 0.11281, Final residual = 0.00808004, No Iterations 2
DILUPBiCGStab:  Solving for Uz, Initial residual = 0.0687536, Final residual = 0.00478598, No Iterations 2
GAMG:  Solving for p, Initial residual = 0.355851, Final residual = 0.0278808, No Iterations 3
time step continuity errors : sum local = 0.000180165, global = -6.13856e-06, cumulative = 4.73731e-05
ExecutionTime = 28.3607 s  ClockTime = 29 s

Time = 88s

DILUPBiCGStab:  Solving for Ux, Initial residual = 0.0780124, Final residual = 0.00467303, No Iterations 2
DILUPBiCGStab:  Solving for Uy, Initial residual = 0.118412, Final residual = 0.00847102, No Iterations 2
DILUPBiCGStab:  Solving for Uz, Initial residual = 0.0700941, Final residual = 0.00497096, No Iterations 2
GAMG:  Solving for p, Initial residual = 0.505832, Final residual = 0.0326881, No Iterations 3
time step continuity errors : sum local = 0.000153437, global = -1.1674e-06, cumulative = 4.62057e-05
ExecutionTime = 28.6804 s  ClockTime = 29 s

Time = 89s

DILUPBiCGStab:  Solving for Ux, Initial residual = 0.0773163, Final residual = 0.00438424, No Iterations 2
DILUPBiCGStab:  Solving for Uy, Initial residual = 0.108193, Final residual = 0.00728266, No Iterations 2
DILUPBiCGStab:  Solving for Uz, Initial residual = 0.0604736, Final residual = 0.0043202, No Iterations 2
GAMG:  Solving for p, Initial residual = 0.355435, Final residual = 0.0212263, No Iterations 3
time step continuity errors : sum local = 0.000139277, global = 3.38438e-06, cumulative = 4.95901e-05
ExecutionTime = 28.9982 s  ClockTime = 29 s

Time = 90s

DILUPBiCGStab:  Solving for Ux, Initial residual = 0.0615266, Final residual = 0.00378924, No Iterations 2
DILUPBiCGStab:  Solving for Uy, Initial residual = 0.0897951, Final residual = 0.00621854, No Iterations 2
DILUPBiCGStab:  Solving for Uz, Initial residual = 0.0568907, Final residual = 0.00398745, No Iterations 2
GAMG:  Solving for p, Initial residual = 0.38259, Final residual = 0.0255222, No Iterations 3
time step continuity errors : sum local = 0.000138489, global = 3.74538e-06, cumulative = 5.33355e-05
ExecutionTime = 29.3171 s  ClockTime = 29 s

Time = 91s

DILUPBiCGStab:  Solving for Ux, Initial residual = 0.0658719, Final residual = 0.00381806, No Iterations 2
DILUPBiCGStab:  Solving for Uy, Initial residual = 0.0928813, Final residual = 0.00673745, No Iterations 2
DILUPBiCGStab:  Solving for Uz, Initial residual = 0.0583217, Final residual = 0.00410202, No Iterations 2
GAMG:  Solving for p, Initial residual = 0.491271, Final residual = 0.0312075, No Iterations 3
time step continuity errors : sum local = 0.000122583, global = 3.04661e-06, cumulative = 5.63821e-05
ExecutionTime = 29.6361 s  ClockTime = 30 s

Time = 92s

DILUPBiCGStab:  Solving for Ux, Initial residual = 0.0722789, Final residual = 0.00401261, No Iterations 2
DILUPBiCGStab:  Solving for Uy, Initial residual = 0.0939297, Final residual = 0.00648314, No Iterations 2
DILUPBiCGStab:  Solving for Uz, Initial residual = 0.0521407, Final residual = 0.00369988, No Iterations 2
GAMG:  Solving for p, Initial residual = 0.31538, Final residual = 0.018943, No Iterations 3
time step continuity errors : sum local = 0.000115692, global = -3.91968e-06, cumulative = 5.24624e-05
ExecutionTime = 29.9538 s  ClockTime = 30 s

Time = 93s

DILUPBiCGStab:  Solving for Ux, Initial residual = 0.0616342, Final residual = 0.00360494, No Iterations 2
DILUPBiCGStab:  Solving for Uy, Initial residual = 0.0869945, Final residual = 0.00600977, No Iterations 2
DILUPBiCGStab:  Solving for Uz, Initial residual = 0.0474999, Final residual = 0.00335708, No Iterations 2
GAMG:  Solving for p, Initial residual = 0.286978, Final residual = 0.0176397, No Iterations 3
time step continuity errors : sum local = 0.000111428, global = -3.09427e-06, cumulative = 4.93682e-05
ExecutionTime = 30.272 s  ClockTime = 30 s

Time = 94s

DILUPBiCGStab:  Solving for Ux, Initial residual = 0.0530991, Final residual = 0.00313222, No Iterations 2
DILUPBiCGStab:  Solving for Uy, Initial residual = 0.0870143, Final residual = 0.00586457, No Iterations 2
DILUPBiCGStab:  Solving for Uz, Initial residual = 0.0473934, Final residual = 0.0032836, No Iterations 2
GAMG:  Solving for p, Initial residual = 0.37824, Final residual = 0.0225887, No Iterations 3
time step continuity errors : sum local = 0.000102353, global = -2.50717e-08, cumulative = 4.93431e-05
ExecutionTime = 30.5948 s  ClockTime = 31 s

Time = 95s

DILUPBiCGStab:  Solving for Ux, Initial residual = 0.0477602, Final residual = 0.00278412, No Iterations 2
DILUPBiCGStab:  Solving for Uy, Initial residual = 0.0842974, Final residual = 0.00577847, No Iterations 2
DILUPBiCGStab:  Solving for Uz, Initial residual = 0.0450073, Final residual = 0.00315786, No Iterations 2
GAMG:  Solving for p, Initial residual = 0.420872, Final residual = 0.0247799, No Iterations 3
time step continuity errors : sum local = 9.98925e-05, global = -3.50175e-09, cumulative = 4.93396e-05
ExecutionTime = 30.9143 s  ClockTime = 31 s

Time = 96s

DILUPBiCGStab:  Solving for Ux, Initial residual = 0.0427537, Final residual = 0.00257038, No Iterations 2
DILUPBiCGStab:  Solving for Uy, Initial residual = 0.0727658, Final residual = 0.00499251, No Iterations 2
DILUPBiCGStab:  Solving for Uz, Initial residual = 0.0415251, Final residual = 0.00293532, No Iterations 2
GAMG:  Solving for p, Initial residual = 0.343032, Final residual = 0.0190974, No Iterations 3
time step continuity errors : sum local = 9.01588e-05, global = 5.73283e-06, cumulative = 5.50724e-05
ExecutionTime = 31.2331 s  ClockTime = 31 s

Time = 97s

DILUPBiCGStab:  Solving for Ux, Initial residual = 0.0418919, Final residual = 0.00255742, No Iterations 2
DILUPBiCGStab:  Solving for Uy, Initial residual = 0.0696391, Final residual = 0.00484361, No Iterations 2
DILUPBiCGStab:  Solving for Uz, Initial residual = 0.040418, Final residual = 0.00282027, No Iterations 2
GAMG:  Solving for p, Initial residual = 0.384871, Final residual = 0.0199145, No Iterations 3
time step continuity errors : sum local = 7.61036e-05, global = 4.16895e-07, cumulative = 5.54893e-05
ExecutionTime = 31.5523 s  ClockTime = 32 s

Time = 98s

DILUPBiCGStab:  Solving for Ux, Initial residual = 0.0420001, Final residual = 0.00249778, No Iterations 2
DILUPBiCGStab:  Solving for Uy, Initial residual = 0.0705305, Final residual = 0.00485845, No Iterations 2
DILUPBiCGStab:  Solving for Uz, Initial residual = 0.038193, Final residual = 0.00268962, No Iterations 2
GAMG:  Solving for p, Initial residual = 0.384952, Final residual = 0.0203535, No Iterations 3
time step continuity errors : sum local = 7.36423e-05, global = 2.62494e-07, cumulative = 5.57518e-05
ExecutionTime = 31.8712 s  ClockTime = 32 s

Time = 99s

DILUPBiCGStab:  Solving for Ux, Initial residual = 0.040951, Final residual = 0.00239682, No Iterations 2
DILUPBiCGStab:  Solving for Uy, Initial residual = 0.0654363, Final residual = 0.00464501, No Iterations 2
DILUPBiCGStab:  Solving for Uz, Initial residual = 0.0352906, Final residual = 0.0025061, No Iterations 2
GAMG:  Solving for p, Initial residual = 0.282047, Final residual = 0.0152849, No Iterations 3
time step continuity errors : sum local = 7.40904e-05, global = -3.95102e-06, cumulative = 5.18008e-05
ExecutionTime = 32.1894 s  ClockTime = 32 s

Time = 100s

DILUPBiCGStab:  Solving for Ux, Initial residual = 0.0401274, Final residual = 0.00232133, No Iterations 2
DILUPBiCGStab:  Solving for Uy, Initial residual = 0.0660484, Final residual = 0.00455402, No Iterations 2
DILUPBiCGStab:  Solving for Uz, Initial residual = 0.0348971, Final residual = 0.00243779, No Iterations 2
GAMG:  Solving for p, Initial residual = 0.279952, Final residual = 0.0133005, No Iterations 3
time step continuity errors : sum local = 6.29844e-05, global = -8.84733e-07, cumulative = 5.09161e-05
ExecutionTime = 32.5073 s  ClockTime = 33 s

Time = 101s

DILUPBiCGStab:  Solving for Ux, Initial residual = 0.0314006, Final residual = 0.00191533, No Iterations 2
DILUPBiCGStab:  Solving for Uy, Initial residual = 0.0684816, Final residual = 0.00461725, No Iterations 2
DILUPBiCGStab:  Solving for Uz, Initial residual = 0.0339705, Final residual = 0.00236999, No Iterations 2
GAMG:  Solving for p, Initial residual = 0.389877, Final residual = 0.0197305, No Iterations 3
time step continuity errors : sum local = 6.36625e-05, global = 6.84768e-08, cumulative = 5.09845e-05
ExecutionTime = 32.8252 s  ClockTime = 33 s

Time = 102s

DILUPBiCGStab:  Solving for Ux, Initial residual = 0.0272165, Final residual = 0.00175306, No Iterations 2
DILUPBiCGStab:  Solving for Uy, Initial residual = 0.0628576, Final residual = 0.00422758, No Iterations 2
DILUPBiCGStab:  Solving for Uz, Initial residual = 0.0316817, Final residual = 0.00225172, No Iterations 2
GAMG:  Solving for p, Initial residual = 0.337039, Final residual = 0.0174603, No Iterations 3
time step continuity errors : sum local = 6.37735e-05, global = 3.05576e-06, cumulative = 5.40403e-05
ExecutionTime = 33.1439 s  ClockTime = 33 s

Time = 103s

DILUPBiCGStab:  Solving for Ux, Initial residual = 0.0282532, Final residual = 0.00179599, No Iterations 2
DILUPBiCGStab:  Solving for Uy, Initial residual = 0.0578016, Final residual = 0.00398779, No Iterations 2
DILUPBiCGStab:  Solving for Uz, Initial residual = 0.0304846, Final residual = 0.00213109, No Iterations 2
GAMG:  Solving for p, Initial residual = 0.32093, Final residual = 0.0137363, No Iterations 3
time step continuity errors : sum local = 5.02249e-05, global = 2.12585e-06, cumulative = 5.61662e-05
ExecutionTime = 33.4626 s  ClockTime = 34 s

Time = 104s

DILUPBiCGStab:  Solving for Ux, Initial residual = 0.0274567, Final residual = 0.0017194, No Iterations 2
DILUPBiCGStab:  Solving for Uy, Initial residual = 0.0568884, Final residual = 0.00397896, No Iterations 2
DILUPBiCGStab:  Solving for Uz, Initial residual = 0.0299527, Final residual = 0.00207708, No Iterations 2
GAMG:  Solving for p, Initial residual = 0.408004, Final residual = 0.0183727, No Iterations 3
time step continuity errors : sum local = 4.93736e-05, global = -1.63197e-07, cumulative = 5.6003e-05
ExecutionTime = 33.7814 s  ClockTime = 34 s

Time = 105s

DILUPBiCGStab:  Solving for Ux, Initial residual = 0.0256022, Final residual = 0.0015764, No Iterations 2
DILUPBiCGStab:  Solving for Uy, Initial residual = 0.0542185, Final residual = 0.00384635, No Iterations 2
DILUPBiCGStab:  Solving for Uz, Initial residual = 0.028475, Final residual = 0.00198782, No Iterations 2
GAMG:  Solving for p, Initial residual = 0.291834, Final residual = 0.0135729, No Iterations 3
time step continuity errors : sum local = 4.89012e-05, global = -4.80783e-07, cumulative = 5.55222e-05
ExecutionTime = 34.1001 s  ClockTime = 34 s

Time = 106s

DILUPBiCGStab:  Solving for Ux, Initial residual = 0.0234416, Final residual = 0.00145084, No Iterations 2
DILUPBiCGStab:  Solving for Uy, Initial residual = 0.0534015, Final residual = 0.00395101, No Iterations 2
DILUPBiCGStab:  Solving for Uz, Initial residual = 0.0279217, Final residual = 0.00191523, No Iterations 2
GAMG:  Solving for p, Initial residual = 0.258585, Final residual = 0.0109389, No Iterations 3
time step continuity errors : sum local = 4.30145e-05, global = -4.14222e-06, cumulative = 5.138e-05
ExecutionTime = 34.4178 s  ClockTime = 35 s

Time = 107s

DILUPBiCGStab:  Solving for Ux, Initial residual = 0.0211703, Final residual = 0.00135793, No Iterations 2
DILUPBiCGStab:  Solving for Uy, Initial residual = 0.0554457, Final residual = 0.00393187, No Iterations 2
DILUPBiCGStab:  Solving for Uz, Initial residual = 0.0273205, Final residual = 0.00184042, No Iterations 2
GAMG:  Solving for p, Initial residual = 0.278604, Final residual = 0.0257737, No Iterations 2
time step continuity errors : sum local = 9.19412e-05, global = -2.69324e-07, cumulative = 5.11106e-05
ExecutionTime = 34.7256 s  ClockTime = 35 s

Time = 108s

DILUPBiCGStab:  Solving for Ux, Initial residual = 0.0180516, Final residual = 0.00121929, No Iterations 2
DILUPBiCGStab:  Solving for Uy, Initial residual = 0.0541689, Final residual = 0.00371215, No Iterations 2
DILUPBiCGStab:  Solving for Uz, Initial residual = 0.0259214, Final residual = 0.00173154, No Iterations 2
GAMG:  Solving for p, Initial residual = 0.314432, Final residual = 0.0309151, No Iterations 2
time step continuity errors : sum local = 9.51622e-05, global = 4.018e-07, cumulative = 5.15124e-05
ExecutionTime = 35.0349 s  ClockTime = 35 s

Time = 109s

DILUPBiCGStab:  Solving for Ux, Initial residual = 0.0151416, Final residual = 0.00110491, No Iterations 2
DILUPBiCGStab:  Solving for Uy, Initial residual = 0.051158, Final residual = 0.00350847, No Iterations 2
DILUPBiCGStab:  Solving for Uz, Initial residual = 0.0251887, Final residual = 0.00167353, No Iterations 2
GAMG:  Solving for p, Initial residual = 0.323644, Final residual = 0.028489, No Iterations 2
time step continuity errors : sum local = 8.27798e-05, global = 6.31993e-07, cumulative = 5.21444e-05
ExecutionTime = 35.3427 s  ClockTime = 35 s

Time = 110s

DILUPBiCGStab:  Solving for Ux, Initial residual = 0.0153228, Final residual = 0.00106144, No Iterations 2
DILUPBiCGStab:  Solving for Uy, Initial residual = 0.0475909, Final residual = 0.00331942, No Iterations 2
DILUPBiCGStab:  Solving for Uz, Initial residual = 0.0245704, Final residual = 0.00163332, No Iterations 2
GAMG:  Solving for p, Initial residual = 0.313397, Final residual = 0.0261124, No Iterations 2
time step continuity errors : sum local = 7.71708e-05, global = -4.84491e-07, cumulative = 5.16599e-05
ExecutionTime = 35.6527 s  ClockTime = 36 s

Time = 111s

DILUPBiCGStab:  Solving for Ux, Initial residual = 0.0152721, Final residual = 0.00102898, No Iterations 2
DILUPBiCGStab:  Solving for Uy, Initial residual = 0.0446477, Final residual = 0.00326063, No Iterations 2
DILUPBiCGStab:  Solving for Uz, Initial residual = 0.023805, Final residual = 0.00159053, No Iterations 2
GAMG:  Solving for p, Initial residual = 0.287347, Final residual = 0.0206086, No Iterations 2
time step continuity errors : sum local = 6.5249e-05, global = -5.56409e-08, cumulative = 5.16043e-05
ExecutionTime = 35.9614 s  ClockTime = 36 s

Time = 112s

DILUPBiCGStab:  Solving for Ux, Initial residual = 0.013787, Final residual = 0.000945942, No Iterations 2
DILUPBiCGStab:  Solving for Uy, Initial residual = 0.0427542, Final residual = 0.00324729, No Iterations 2
DILUPBiCGStab:  Solving for Uz, Initial residual = 0.0235918, Final residual = 0.00157373, No Iterations 2
GAMG:  Solving for p, Initial residual = 0.271387, Final residual = 0.0192318, No Iterations 2
time step continuity errors : sum local = 6.228e-05, global = -1.66831e-06, cumulative = 4.9936e-05
ExecutionTime = 36.2693 s  ClockTime = 36 s

Time = 113s

DILUPBiCGStab:  Solving for Ux, Initial residual = 0.0122182, Final residual = 0.00088203, No Iterations 2
DILUPBiCGStab:  Solving for Uy, Initial residual = 0.0424948, Final residual = 0.00319418, No Iterations 2
DILUPBiCGStab:  Solving for Uz, Initial residual = 0.0237115, Final residual = 0.00156057, No Iterations 2
GAMG:  Solving for p, Initial residual = 0.267823, Final residual = 0.0191621, No Iterations 2
time step continuity errors : sum local = 6.1294e-05, global = -9.86114e-07, cumulative = 4.89499e-05
ExecutionTime = 36.5776 s  ClockTime = 37 s

Time = 114s

DILUPBiCGStab:  Solving for Ux, Initial residual = 0.0118659, Final residual = 0.00086264, No Iterations 2
DILUPBiCGStab:  Solving for Uy, Initial residual = 0.0435149, Final residual = 0.00307576, No Iterations 2
DILUPBiCGStab:  Solving for Uz, Initial residual = 0.023422, Final residual = 0.00152715, No Iterations 2
GAMG:  Solving for p, Initial residual = 0.286939, Final residual = 0.0197727, No Iterations 2
time step continuity errors : sum local = 5.85167e-05, global = -8.66004e-07, cumulative = 4.80839e-05
ExecutionTime = 36.8878 s  ClockTime = 37 s

Time = 115s

DILUPBiCGStab:  Solving for Ux, Initial residual = 0.0120988, Final residual = 0.000860214, No Iterations 2
DILUPBiCGStab:  Solving for Uy, Initial residual = 0.0440384, Final residual = 0.00295955, No Iterations 2
DILUPBiCGStab:  Solving for Uz, Initial residual = 0.022672, Final residual = 0.00148539, No Iterations 2
GAMG:  Solving for p, Initial residual = 0.302504, Final residual = 0.0194406, No Iterations 2
time step continuity errors : sum local = 5.39924e-05, global = -8.86598e-07, cumulative = 4.71973e-05
ExecutionTime = 37.1965 s  ClockTime = 37 s

Time = 116s

DILUPBiCGStab:  Solving for Ux, Initial residual = 0.0121222, Final residual = 0.000829375, No Iterations 2
DILUPBiCGStab:  Solving for Uy, Initial residual = 0.0429113, Final residual = 0.00285776, No Iterations 2
DILUPBiCGStab:  Solving for Uz, Initial residual = 0.0218266, Final residual = 0.00142854, No Iterations 2
GAMG:  Solving for p, Initial residual = 0.293414, Final residual = 0.0175968, No Iterations 2
time step continuity errors : sum local = 4.91101e-05, global = 7.78824e-07, cumulative = 4.79761e-05
ExecutionTime = 37.5048 s  ClockTime = 38 s

Time = 117s

DILUPBiCGStab:  Solving for Ux, Initial residual = 0.0120446, Final residual = 0.000795317, No Iterations 2
DILUPBiCGStab:  Solving for Uy, Initial residual = 0.0409701, Final residual = 0.00273079, No Iterations 2
DILUPBiCGStab:  Solving for Uz, Initial residual = 0.0211833, Final residual = 0.00137151, No Iterations 2
GAMG:  Solving for p, Initial residual = 0.285722, Final residual = 0.0158501, No Iterations 2
time step continuity errors : sum local = 4.4664e-05, global = 2.60465e-07, cumulative = 4.82366e-05
ExecutionTime = 37.8144 s  ClockTime = 38 s

Time = 118s

DILUPBiCGStab:  Solving for Ux, Initial residual = 0.0116718, Final residual = 0.000757664, No Iterations 2
DILUPBiCGStab:  Solving for Uy, Initial residual = 0.0387767, Final residual = 0.00261258, No Iterations 2
DILUPBiCGStab:  Solving for Uz, Initial residual = 0.0209059, Final residual = 0.00134476, No Iterations 2
GAMG:  Solving for p, Initial residual = 0.279748, Final residual = 0.017091, No Iterations 2
time step continuity errors : sum local = 4.84736e-05, global = 1.33102e-07, cumulative = 4.83697e-05
ExecutionTime = 38.1231 s  ClockTime = 38 s

Time = 119s

DILUPBiCGStab:  Solving for Ux, Initial residual = 0.0112407, Final residual = 0.000732227, No Iterations 2
DILUPBiCGStab:  Solving for Uy, Initial residual = 0.036803, Final residual = 0.0025241, No Iterations 2
DILUPBiCGStab:  Solving for Uz, Initial residual = 0.0208195, Final residual = 0.00133274, No Iterations 2
GAMG:  Solving for p, Initial residual = 0.281125, Final residual = 0.017874, No Iterations 2
time step continuity errors : sum local = 4.9237e-05, global = -6.07378e-07, cumulative = 4.77623e-05
ExecutionTime = 38.4316 s  ClockTime = 39 s

Time = 120s

DILUPBiCGStab:  Solving for Ux, Initial residual = 0.0120652, Final residual = 0.000743051, No Iterations 2
DILUPBiCGStab:  Solving for Uy, Initial residual = 0.035936, Final residual = 0.00244436, No Iterations 2
DILUPBiCGStab:  Solving for Uz, Initial residual = 0.0206158, Final residual = 0.00131648, No Iterations 2
GAMG:  Solving for p, Initial residual = 0.308463, Final residual = 0.019195, No Iterations 2
time step continuity errors : sum local = 4.73947e-05, global = -9.76683e-07, cumulative = 4.67856e-05
ExecutionTime = 38.7387 s  ClockTime = 39 s

Time = 121s

DILUPBiCGStab:  Solving for Ux, Initial residual = 0.0136862, Final residual = 0.000782003, No Iterations 2
DILUPBiCGStab:  Solving for Uy, Initial residual = 0.0366887, Final residual = 0.00241612, No Iterations 2
DILUPBiCGStab:  Solving for Uz, Initial residual = 0.0201962, Final residual = 0.00129203, No Iterations 2
GAMG:  Solving for p, Initial residual = 0.272831, Final residual = 0.0144288, No Iterations 2
time step continuity errors : sum local = 3.99316e-05, global = -1.25472e-07, cumulative = 4.66601e-05
ExecutionTime = 39.0451 s  ClockTime = 39 s

Time = 122s

DILUPBiCGStab:  Solving for Ux, Initial residual = 0.0144376, Final residual = 0.00079991, No Iterations 2
DILUPBiCGStab:  Solving for Uy, Initial residual = 0.038042, Final residual = 0.00244689, No Iterations 2
DILUPBiCGStab:  Solving for Uz, Initial residual = 0.0196914, Final residual = 0.00125672, No Iterations 2
GAMG:  Solving for p, Initial residual = 0.252271, Final residual = 0.0120767, No Iterations 2
time step continuity errors : sum local = 3.51594e-05, global = -2.46779e-07, cumulative = 4.64133e-05
ExecutionTime = 39.3517 s  ClockTime = 40 s

Time = 123s

DILUPBiCGStab:  Solving for Ux, Initial residual = 0.0141601, Final residual = 0.00078523, No Iterations 2
DILUPBiCGStab:  Solving for Uy, Initial residual = 0.0388014, Final residual = 0.00249586, No Iterations 2
DILUPBiCGStab:  Solving for Uz, Initial residual = 0.0193164, Final residual = 0.0012363, No Iterations 2
GAMG:  Solving for p, Initial residual = 0.24635, Final residual = 0.0127141, No Iterations 2
time step continuity errors : sum local = 3.62782e-05, global = 2.11488e-07, cumulative = 4.66248e-05
ExecutionTime = 39.6598 s  ClockTime = 40 s

Time = 124s

DILUPBiCGStab:  Solving for Ux, Initial residual = 0.0138484, Final residual = 0.000772148, No Iterations 2
DILUPBiCGStab:  Solving for Uy, Initial residual = 0.0388331, Final residual = 0.00249107, No Iterations 2
DILUPBiCGStab:  Solving for Uz, Initial residual = 0.0192755, Final residual = 0.001232, No Iterations 2
GAMG:  Solving for p, Initial residual = 0.249299, Final residual = 0.0128768, No Iterations 2
time step continuity errors : sum local = 3.50677e-05, global = 6.46761e-07, cumulative = 4.72716e-05
ExecutionTime = 39.9673 s  ClockTime = 40 s

Time = 125s

DILUPBiCGStab:  Solving for Ux, Initial residual = 0.0129703, Final residual = 0.000737979, No Iterations 2
DILUPBiCGStab:  Solving for Uy, Initial residual = 0.0377939, Final residual = 0.00241358, No Iterations 2
DILUPBiCGStab:  Solving for Uz, Initial residual = 0.0194157, Final residual = 0.00122987, No Iterations 2
GAMG:  Solving for p, Initial residual = 0.262464, Final residual = 0.0131506, No Iterations 2
time step continuity errors : sum local = 3.30176e-05, global = 7.09631e-07, cumulative = 4.79812e-05
ExecutionTime = 40.2759 s  ClockTime = 40 s

Time = 126s

DILUPBiCGStab:  Solving for Ux, Initial residual = 0.0119161, Final residual = 0.000692094, No Iterations 2
DILUPBiCGStab:  Solving for Uy, Initial residual = 0.0365163, Final residual = 0.00231641, No Iterations 2
DILUPBiCGStab:  Solving for Uz, Initial residual = 0.0194753, Final residual = 0.00122791, No Iterations 2
GAMG:  Solving for p, Initial residual = 0.273291, Final residual = 0.0134564, No Iterations 2
time step continuity errors : sum local = 3.13963e-05, global = 4.00014e-07, cumulative = 4.83812e-05
ExecutionTime = 40.5845 s  ClockTime = 41 s

Time = 127s

DILUPBiCGStab:  Solving for Ux, Initial residual = 0.0115782, Final residual = 0.000667295, No Iterations 2
DILUPBiCGStab:  Solving for Uy, Initial residual = 0.035768, Final residual = 0.00224559, No Iterations 2
DILUPBiCGStab:  Solving for Uz, Initial residual = 0.0193587, Final residual = 0.0012128, No Iterations 2
GAMG:  Solving for p, Initial residual = 0.268216, Final residual = 0.0141186, No Iterations 2
time step continuity errors : sum local = 3.24198e-05, global = 8.31013e-08, cumulative = 4.84643e-05
ExecutionTime = 40.8944 s  ClockTime = 41 s

Time = 128s

DILUPBiCGStab:  Solving for Ux, Initial residual = 0.0123392, Final residual = 0.000684249, No Iterations 2
DILUPBiCGStab:  Solving for Uy, Initial residual = 0.0357453, Final residual = 0.00223791, No Iterations 2
DILUPBiCGStab:  Solving for Uz, Initial residual = 0.0191758, Final residual = 0.00119724, No Iterations 2
GAMG:  Solving for p, Initial residual = 0.251093, Final residual = 0.0149106, No Iterations 2
time step continuity errors : sum local = 3.57038e-05, global = -9.06013e-08, cumulative = 4.83737e-05
ExecutionTime = 41.2036 s  ClockTime = 41 s

Time = 129s

DILUPBiCGStab:  Solving for Ux, Initial residual = 0.0144911, Final residual = 0.000761849, No Iterations 2
DILUPBiCGStab:  Solving for Uy, Initial residual = 0.0362684, Final residual = 0.00232166, No Iterations 2
DILUPBiCGStab:  Solving for Uz, Initial residual = 0.0191274, Final residual = 0.00118683, No Iterations 2
GAMG:  Solving for p, Initial residual = 0.227092, Final residual = 0.0126607, No Iterations 2
time step continuity errors : sum local = 3.32154e-05, global = 1.49511e-07, cumulative = 4.85232e-05
ExecutionTime = 41.5127 s  ClockTime = 42 s

Time = 130s

DILUPBiCGStab:  Solving for Ux, Initial residual = 0.0165235, Final residual = 0.000845528, No Iterations 2
DILUPBiCGStab:  Solving for Uy, Initial residual = 0.0365061, Final residual = 0.00236473, No Iterations 2
DILUPBiCGStab:  Solving for Uz, Initial residual = 0.0192114, Final residual = 0.00119311, No Iterations 2
GAMG:  Solving for p, Initial residual = 0.211388, Final residual = 0.00979901, No Iterations 2
time step continuity errors : sum local = 2.74266e-05, global = -2.05736e-07, cumulative = 4.83175e-05
ExecutionTime = 41.821 s  ClockTime = 42 s

Time = 131s

DILUPBiCGStab:  Solving for Ux, Initial residual = 0.016817, Final residual = 0.000860787, No Iterations 2
DILUPBiCGStab:  Solving for Uy, Initial residual = 0.0359552, Final residual = 0.0023899, No Iterations 2
DILUPBiCGStab:  Solving for Uz, Initial residual = 0.019331, Final residual = 0.00120676, No Iterations 2
GAMG:  Solving for p, Initial residual = 0.20649, Final residual = 0.0087204, No Iterations 2
time step continuity errors : sum local = 2.44335e-05, global = 1.17609e-07, cumulative = 4.84351e-05
ExecutionTime = 42.1287 s  ClockTime = 42 s

Time = 132s

DILUPBiCGStab:  Solving for Ux, Initial residual = 0.0163599, Final residual = 0.000844403, No Iterations 2
DILUPBiCGStab:  Solving for Uy, Initial residual = 0.035145, Final residual = 0.00237361, No Iterations 2
DILUPBiCGStab:  Solving for Uz, Initial residual = 0.0194632, Final residual = 0.00121627, No Iterations 2
GAMG:  Solving for p, Initial residual = 0.206917, Final residual = 0.00973834, No Iterations 2
time step continuity errors : sum local = 2.64412e-05, global = 6.5958e-08, cumulative = 4.85011e-05
ExecutionTime = 42.437 s  ClockTime = 43 s

Time = 133s

DILUPBiCGStab:  Solving for Ux, Initial residual = 0.0151432, Final residual = 0.000798218, No Iterations 2
DILUPBiCGStab:  Solving for Uy, Initial residual = 0.0342981, Final residual = 0.00236601, No Iterations 2
DILUPBiCGStab:  Solving for Uz, Initial residual = 0.0194178, Final residual = 0.00121083, No Iterations 2
GAMG:  Solving for p, Initial residual = 0.212071, Final residual = 0.0104061, No Iterations 2
time step continuity errors : sum local = 2.66837e-05, global = 1.11588e-07, cumulative = 4.86127e-05
ExecutionTime = 42.7455 s  ClockTime = 43 s

Time = 134s

DILUPBiCGStab:  Solving for Ux, Initial residual = 0.0135467, Final residual = 0.000734763, No Iterations 2
DILUPBiCGStab:  Solving for Uy, Initial residual = 0.0338542, Final residual = 0.00238609, No Iterations 2
DILUPBiCGStab:  Solving for Uz, Initial residual = 0.019234, Final residual = 0.00119595, No Iterations 2
GAMG:  Solving for p, Initial residual = 0.220448, Final residual = 0.00999944, No Iterations 2
time step continuity errors : sum local = 2.39786e-05, global = 2.12692e-07, cumulative = 4.88254e-05
ExecutionTime = 43.0529 s  ClockTime = 43 s

Time = 135s

DILUPBiCGStab:  Solving for Ux, Initial residual = 0.0126097, Final residual = 0.000694181, No Iterations 2
DILUPBiCGStab:  Solving for Uy, Initial residual = 0.0338807, Final residual = 0.00240757, No Iterations 2
DILUPBiCGStab:  Solving for Uz, Initial residual = 0.0190643, Final residual = 0.00118418, No Iterations 2
GAMG:  Solving for p, Initial residual = 0.223248, Final residual = 0.00878207, No Iterations 2
time step continuity errors : sum local = 2.02508e-05, global = 2.57253e-07, cumulative = 4.90826e-05
ExecutionTime = 43.3616 s  ClockTime = 44 s

Time = 136s

DILUPBiCGStab:  Solving for Ux, Initial residual = 0.0122889, Final residual = 0.000673454, No Iterations 2
DILUPBiCGStab:  Solving for Uy, Initial residual = 0.0338219, Final residual = 0.00237866, No Iterations 2
DILUPBiCGStab:  Solving for Uz, Initial residual = 0.0189378, Final residual = 0.00116947, No Iterations 2
GAMG:  Solving for p, Initial residual = 0.221091, Final residual = 0.00882343, No Iterations 2
time step continuity errors : sum local = 2.00733e-05, global = -7.74272e-08, cumulative = 4.90052e-05
ExecutionTime = 43.6693 s  ClockTime = 44 s

Time = 137s

DILUPBiCGStab:  Solving for Ux, Initial residual = 0.0120835, Final residual = 0.000659161, No Iterations 2
DILUPBiCGStab:  Solving for Uy, Initial residual = 0.033531, Final residual = 0.00232593, No Iterations 2
DILUPBiCGStab:  Solving for Uz, Initial residual = 0.0188417, Final residual = 0.00115758, No Iterations 2
GAMG:  Solving for p, Initial residual = 0.218352, Final residual = 0.00891775, No Iterations 2
time step continuity errors : sum local = 2.00227e-05, global = -8.47101e-08, cumulative = 4.89205e-05
ExecutionTime = 43.9782 s  ClockTime = 44 s

Time = 138s

[...]
GAMG:  Solving for p, Initial residual = 0.204479, Final residual = 0.00869341, No Iterations 2
time step continuity errors : sum local = 3.80871e-05, global = 9.12603e-07, cumulative = 4.53666e-05
ExecutionTime = 145.238 s  ClockTime = 146 s

Time = 467s

DILUPBiCGStab:  Solving for Ux, Initial residual = 0.00866521, Final residual = 0.000532152, No Iterations 2
DILUPBiCGStab:  Solving for Uy, Initial residual = 0.019284, Final residual = 0.00125348, No Iterations 2
DILUPBiCGStab:  Solving for Uz, Initial residual = 0.0165985, Final residual = 0.001039, No Iterations 2
GAMG:  Solving for p, Initial residual = 0.200778, Final residual = 0.00850918, No Iterations 2
time step continuity errors : sum local = 3.82188e-05, global = 1.00124e-06, cumulative = 4.63678e-05
ExecutionTime = 145.547 s  ClockTime = 146 s

Time = 468s

DILUPBiCGStab:  Solving for Ux, Initial residual = 0.00912397, Final residual = 0.000553953, No Iterations 2
DILUPBiCGStab:  Solving for Uy, Initial residual = 0.0193615, Final residual = 0.00127054, No Iterations 2
DILUPBiCGStab:  Solving for Uz, Initial residual = 0.0164055, Final residual = 0.00103161, No Iterations 2
GAMG:  Solving for p, Initial residual = 0.198257, Final residual = 0.00823954, No Iterations 2
time step continuity errors : sum local = 3.7813e-05, global = 1.00416e-06, cumulative = 4.7372e-05
ExecutionTime = 145.859 s  ClockTime = 146 s

Time = 469s

DILUPBiCGStab:  Solving for Ux, Initial residual = 0.00939651, Final residual = 0.000568786, No Iterations 2
DILUPBiCGStab:  Solving for Uy, Initial residual = 0.0194326, Final residual = 0.00127782, No Iterations 2
DILUPBiCGStab:  Solving for Uz, Initial residual = 0.0162548, Final residual = 0.00100391, No Iterations 2
GAMG:  Solving for p, Initial residual = 0.196696, Final residual = 0.0082998, No Iterations 2
time step continuity errors : sum local = 3.87526e-05, global = 9.06455e-07, cumulative = 4.82784e-05
ExecutionTime = 146.168 s  ClockTime = 146 s

Time = 470s

DILUPBiCGStab:  Solving for Ux, Initial residual = 0.00981885, Final residual = 0.000573572, No Iterations 2
DILUPBiCGStab:  Solving for Uy, Initial residual = 0.0196121, Final residual = 0.0012854, No Iterations 2
DILUPBiCGStab:  Solving for Uz, Initial residual = 0.0161803, Final residual = 0.000994844, No Iterations 2
GAMG:  Solving for p, Initial residual = 0.194641, Final residual = 0.00849223, No Iterations 2
time step continuity errors : sum local = 4.05358e-05, global = 8.37509e-07, cumulative = 4.91159e-05
ExecutionTime = 146.476 s  ClockTime = 147 s

Time = 471s

DILUPBiCGStab:  Solving for Ux, Initial residual = 0.0103892, Final residual = 0.000597453, No Iterations 2
DILUPBiCGStab:  Solving for Uy, Initial residual = 0.0199582, Final residual = 0.00129782, No Iterations 2
DILUPBiCGStab:  Solving for Uz, Initial residual = 0.0161246, Final residual = 0.000987249, No Iterations 2
GAMG:  Solving for p, Initial residual = 0.192092, Final residual = 0.00928272, No Iterations 2
time step continuity errors : sum local = 4.55784e-05, global = 5.28956e-07, cumulative = 4.96449e-05
ExecutionTime = 146.785 s  ClockTime = 147 s

Time = 472s

DILUPBiCGStab:  Solving for Ux, Initial residual = 0.0113265, Final residual = 0.000631948, No Iterations 2
DILUPBiCGStab:  Solving for Uy, Initial residual = 0.0204981, Final residual = 0.00133304, No Iterations 2
DILUPBiCGStab:  Solving for Uz, Initial residual = 0.0161498, Final residual = 0.000986812, No Iterations 2
GAMG:  Solving for p, Initial residual = 0.188045, Final residual = 0.00832808, No Iterations 2
time step continuity errors : sum local = 4.25062e-05, global = 4.6074e-07, cumulative = 5.01056e-05
ExecutionTime = 147.093 s  ClockTime = 147 s

Time = 473s

DILUPBiCGStab:  Solving for Ux, Initial residual = 0.0119619, Final residual = 0.000663137, No Iterations 2
DILUPBiCGStab:  Solving for Uy, Initial residual = 0.0209998, Final residual = 0.00136927, No Iterations 2
DILUPBiCGStab:  Solving for Uz, Initial residual = 0.0161043, Final residual = 0.000987645, No Iterations 2
GAMG:  Solving for p, Initial residual = 0.18534, Final residual = 0.00715557, No Iterations 2
time step continuity errors : sum local = 3.77822e-05, global = 3.42063e-07, cumulative = 5.04477e-05
ExecutionTime = 147.4 s  ClockTime = 148 s

Time = 474s

DILUPBiCGStab:  Solving for Ux, Initial residual = 0.012033, Final residual = 0.000664586, No Iterations 2
DILUPBiCGStab:  Solving for Uy, Initial residual = 0.0213467, Final residual = 0.00138883, No Iterations 2
DILUPBiCGStab:  Solving for Uz, Initial residual = 0.0161146, Final residual = 0.000995436, No Iterations 2
GAMG:  Solving for p, Initial residual = 0.183261, Final residual = 0.00709515, No Iterations 2
time step continuity errors : sum local = 3.83248e-05, global = -8.30654e-07, cumulative = 4.9617e-05
ExecutionTime = 147.706 s  ClockTime = 148 s

Time = 475s

DILUPBiCGStab:  Solving for Ux, Initial residual = 0.0117388, Final residual = 0.000648212, No Iterations 2
DILUPBiCGStab:  Solving for Uy, Initial residual = 0.0214593, Final residual = 0.00137473, No Iterations 2
DILUPBiCGStab:  Solving for Uz, Initial residual = 0.0160629, Final residual = 0.000990595, No Iterations 2
GAMG:  Solving for p, Initial residual = 0.182253, Final residual = 0.00794949, No Iterations 2
time step continuity errors : sum local = 4.37018e-05, global = -1.2993e-06, cumulative = 4.83177e-05
ExecutionTime = 148.014 s  ClockTime = 148 s

Time = 476s

DILUPBiCGStab:  Solving for Ux, Initial residual = 0.0111379, Final residual = 0.000628014, No Iterations 2
DILUPBiCGStab:  Solving for Uy, Initial residual = 0.0214641, Final residual = 0.00136822, No Iterations 2
DILUPBiCGStab:  Solving for Uz, Initial residual = 0.016083, Final residual = 0.000996985, No Iterations 2
GAMG:  Solving for p, Initial residual = 0.182827, Final residual = 0.00884281, No Iterations 2
time step continuity errors : sum local = 4.89634e-05, global = -1.15321e-06, cumulative = 4.71645e-05
ExecutionTime = 148.322 s  ClockTime = 149 s

Time = 477s

DILUPBiCGStab:  Solving for Ux, Initial residual = 0.010127, Final residual = 0.000602643, No Iterations 2
DILUPBiCGStab:  Solving for Uy, Initial residual = 0.0213143, Final residual = 0.0013562, No Iterations 2
DILUPBiCGStab:  Solving for Uz, Initial residual = 0.0161397, Final residual = 0.00101287, No Iterations 2
GAMG:  Solving for p, Initial residual = 0.186884, Final residual = 0.00904642, No Iterations 2
time step continuity errors : sum local = 4.95647e-05, global = -1.15237e-06, cumulative = 4.60122e-05
ExecutionTime = 148.631 s  ClockTime = 149 s

Time = 478s

DILUPBiCGStab:  Solving for Ux, Initial residual = 0.0092367, Final residual = 0.000562327, No Iterations 2
DILUPBiCGStab:  Solving for Uy, Initial residual = 0.0211363, Final residual = 0.00134078, No Iterations 2
DILUPBiCGStab:  Solving for Uz, Initial residual = 0.0161448, Final residual = 0.00101547, No Iterations 2
GAMG:  Solving for p, Initial residual = 0.191747, Final residual = 0.00885517, No Iterations 2
time step continuity errors : sum local = 4.77373e-05, global = -1.19075e-06, cumulative = 4.48214e-05
ExecutionTime = 148.94 s  ClockTime = 149 s

Time = 479s

DILUPBiCGStab:  Solving for Ux, Initial residual = 0.00869791, Final residual = 0.000537157, No Iterations 2
DILUPBiCGStab:  Solving for Uy, Initial residual = 0.0210946, Final residual = 0.00134254, No Iterations 2
DILUPBiCGStab:  Solving for Uz, Initial residual = 0.0161826, Final residual = 0.00103981, No Iterations 2
GAMG:  Solving for p, Initial residual = 0.196138, Final residual = 0.00874852, No Iterations 2
time step continuity errors : sum local = 4.63944e-05, global = -1.1213e-06, cumulative = 4.37001e-05
ExecutionTime = 149.249 s  ClockTime = 150 s

Time = 480s

DILUPBiCGStab:  Solving for Ux, Initial residual = 0.00833879, Final residual = 0.00052026, No Iterations 2
DILUPBiCGStab:  Solving for Uy, Initial residual = 0.0212534, Final residual = 0.00135559, No Iterations 2
DILUPBiCGStab:  Solving for Uz, Initial residual = 0.0163005, Final residual = 0.00104512, No Iterations 2
GAMG:  Solving for p, Initial residual = 0.201314, Final residual = 0.00883807, No Iterations 2
time step continuity errors : sum local = 4.58419e-05, global = -9.18114e-07, cumulative = 4.2782e-05
ExecutionTime = 149.559 s  ClockTime = 150 s

Time = 481s

DILUPBiCGStab:  Solving for Ux, Initial residual = 0.00817595, Final residual = 0.000521371, No Iterations 2
DILUPBiCGStab:  Solving for Uy, Initial residual = 0.0215339, Final residual = 0.00140206, No Iterations 2
DILUPBiCGStab:  Solving for Uz, Initial residual = 0.0164826, Final residual = 0.00106185, No Iterations 2
GAMG:  Solving for p, Initial residual = 0.205504, Final residual = 0.0102225, No Iterations 2
time step continuity errors : sum local = 5.20899e-05, global = -7.82832e-07, cumulative = 4.19992e-05
ExecutionTime = 149.868 s  ClockTime = 150 s

Time = 482s

DILUPBiCGStab:  Solving for Ux, Initial residual = 0.00821541, Final residual = 0.000521791, No Iterations 2
DILUPBiCGStab:  Solving for Uy, Initial residual = 0.0219259, Final residual = 0.00139926, No Iterations 2
DILUPBiCGStab:  Solving for Uz, Initial residual = 0.0167288, Final residual = 0.00109848, No Iterations 2
GAMG:  Solving for p, Initial residual = 0.214244, Final residual = 0.0103397, No Iterations 2
time step continuity errors : sum local = 5.09987e-05, global = -8.3333e-07, cumulative = 4.11658e-05
ExecutionTime = 150.177 s  ClockTime = 150 s

Time = 483s

DILUPBiCGStab:  Solving for Ux, Initial residual = 0.00853725, Final residual = 0.000535529, No Iterations 2
DILUPBiCGStab:  Solving for Uy, Initial residual = 0.0222658, Final residual = 0.00143635, No Iterations 2
DILUPBiCGStab:  Solving for Uz, Initial residual = 0.0169262, Final residual = 0.00111219, No Iterations 2
GAMG:  Solving for p, Initial residual = 0.223546, Final residual = 0.0093, No Iterations 2
time step continuity errors : sum local = 4.45668e-05, global = -1.84944e-06, cumulative = 3.93164e-05
ExecutionTime = 150.486 s  ClockTime = 151 s

Time = 484s

DILUPBiCGStab:  Solving for Ux, Initial residual = 0.00877797, Final residual = 0.00055076, No Iterations 2
DILUPBiCGStab:  Solving for Uy, Initial residual = 0.0225001, Final residual = 0.00146657, No Iterations 2
DILUPBiCGStab:  Solving for Uz, Initial residual = 0.0169978, Final residual = 0.00111661, No Iterations 2
GAMG:  Solving for p, Initial residual = 0.227222, Final residual = 0.00957561, No Iterations 2
time step continuity errors : sum local = 4.54101e-05, global = -2.07803e-06, cumulative = 3.72384e-05
ExecutionTime = 150.794 s  ClockTime = 151 s

Time = 485s

DILUPBiCGStab:  Solving for Ux, Initial residual = 0.0089729, Final residual = 0.000559846, No Iterations 2
DILUPBiCGStab:  Solving for Uy, Initial residual = 0.0228172, Final residual = 0.0015269, No Iterations 2
DILUPBiCGStab:  Solving for Uz, Initial residual = 0.0170999, Final residual = 0.00111536, No Iterations 2
GAMG:  Solving for p, Initial residual = 0.228965, Final residual = 0.00991702, No Iterations 2
time step continuity errors : sum local = 4.66838e-05, global = -1.97523e-06, cumulative = 3.52631e-05
ExecutionTime = 151.103 s  ClockTime = 151 s

Time = 486s

DILUPBiCGStab:  Solving for Ux, Initial residual = 0.00907955, Final residual = 0.000568202, No Iterations 2
DILUPBiCGStab:  Solving for Uy, Initial residual = 0.0231157, Final residual = 0.00153303, No Iterations 2
DILUPBiCGStab:  Solving for Uz, Initial residual = 0.0172378, Final residual = 0.00110739, No Iterations 2
GAMG:  Solving for p, Initial residual = 0.229839, Final residual = 0.0102317, No Iterations 2
time step continuity errors : sum local = 4.8075e-05, global = -1.78395e-06, cumulative = 3.34792e-05
ExecutionTime = 151.411 s  ClockTime = 152 s

Time = 487s

DILUPBiCGStab:  Solving for Ux, Initial residual = 0.00918964, Final residual = 0.000572291, No Iterations 2
DILUPBiCGStab:  Solving for Uy, Initial residual = 0.0233734, Final residual = 0.00153991, No Iterations 2
DILUPBiCGStab:  Solving for Uz, Initial residual = 0.0173767, Final residual = 0.00110789, No Iterations 2
GAMG:  Solving for p, Initial residual = 0.23127, Final residual = 0.0103009, No Iterations 2
time step continuity errors : sum local = 4.83309e-05, global = -1.35656e-06, cumulative = 3.21226e-05
ExecutionTime = 151.721 s  ClockTime = 152 s

Time = 488s

DILUPBiCGStab:  Solving for Ux, Initial residual = 0.00932467, Final residual = 0.000581462, No Iterations 2
DILUPBiCGStab:  Solving for Uy, Initial residual = 0.023491, Final residual = 0.00153882, No Iterations 2
DILUPBiCGStab:  Solving for Uz, Initial residual = 0.0175543, Final residual = 0.00111569, No Iterations 2
GAMG:  Solving for p, Initial residual = 0.232173, Final residual = 0.0103397, No Iterations 2
time step continuity errors : sum local = 4.84416e-05, global = -9.38026e-07, cumulative = 3.11846e-05
ExecutionTime = 152.029 s  ClockTime = 152 s

Time = 489s

DILUPBiCGStab:  Solving for Ux, Initial residual = 0.00952218, Final residual = 0.000593629, No Iterations 2
DILUPBiCGStab:  Solving for Uy, Initial residual = 0.0236573, Final residual = 0.00153396, No Iterations 2
DILUPBiCGStab:  Solving for Uz, Initial residual = 0.0177697, Final residual = 0.00113957, No Iterations 2
GAMG:  Solving for p, Initial residual = 0.234214, Final residual = 0.0102151, No Iterations 2
time step continuity errors : sum local = 4.76783e-05, global = -6.58129e-07, cumulative = 3.05265e-05
ExecutionTime = 152.337 s  ClockTime = 153 s

Time = 490s

DILUPBiCGStab:  Solving for Ux, Initial residual = 0.009605, Final residual = 0.000596522, No Iterations 2
DILUPBiCGStab:  Solving for Uy, Initial residual = 0.0237571, Final residual = 0.00153591, No Iterations 2
DILUPBiCGStab:  Solving for Uz, Initial residual = 0.0180168, Final residual = 0.0011552, No Iterations 2
GAMG:  Solving for p, Initial residual = 0.235328, Final residual = 0.0103832, No Iterations 2
time step continuity errors : sum local = 4.85351e-05, global = 1.50447e-07, cumulative = 3.06769e-05
ExecutionTime = 152.644 s  ClockTime = 153 s

Time = 491s

DILUPBiCGStab:  Solving for Ux, Initial residual = 0.00966757, Final residual = 0.000600613, No Iterations 2
DILUPBiCGStab:  Solving for Uy, Initial residual = 0.0238135, Final residual = 0.00153401, No Iterations 2
DILUPBiCGStab:  Solving for Uz, Initial residual = 0.0182994, Final residual = 0.001161, No Iterations 2
GAMG:  Solving for p, Initial residual = 0.236985, Final residual = 0.0107314, No Iterations 2
time step continuity errors : sum local = 5.02794e-05, global = 8.9819e-07, cumulative = 3.15751e-05
ExecutionTime = 152.953 s  ClockTime = 153 s

Time = 492s

DILUPBiCGStab:  Solving for Ux, Initial residual = 0.00974326, Final residual = 0.000606356, No Iterations 2
DILUPBiCGStab:  Solving for Uy, Initial residual = 0.0239341, Final residual = 0.0015394, No Iterations 2
DILUPBiCGStab:  Solving for Uz, Initial residual = 0.0186644, Final residual = 0.00117669, No Iterations 2
GAMG:  Solving for p, Initial residual = 0.239007, Final residual = 0.0111191, No Iterations 2
time step continuity errors : sum local = 5.2259e-05, global = 1.5958e-06, cumulative = 3.31709e-05
ExecutionTime = 153.262 s  ClockTime = 154 s

Time = 493s

DILUPBiCGStab:  Solving for Ux, Initial residual = 0.00982315, Final residual = 0.000607908, No Iterations 2
DILUPBiCGStab:  Solving for Uy, Initial residual = 0.0241026, Final residual = 0.00155271, No Iterations 2
DILUPBiCGStab:  Solving for Uz, Initial residual = 0.0190467, Final residual = 0.00119417, No Iterations 2
GAMG:  Solving for p, Initial residual = 0.241865, Final residual = 0.0116124, No Iterations 2
time step continuity errors : sum local = 5.48138e-05, global = 1.87016e-06, cumulative = 3.50411e-05
ExecutionTime = 153.571 s  ClockTime = 154 s

Time = 494s

DILUPBiCGStab:  Solving for Ux, Initial residual = 0.00986552, Final residual = 0.00061757, No Iterations 2
DILUPBiCGStab:  Solving for Uy, Initial residual = 0.0243138, Final residual = 0.0015737, No Iterations 2
DILUPBiCGStab:  Solving for Uz, Initial residual = 0.0194965, Final residual = 0.00122469, No Iterations 2
GAMG:  Solving for p, Initial residual = 0.243693, Final residual = 0.0118557, No Iterations 2
time step continuity errors : sum local = 5.64956e-05, global = 1.91755e-06, cumulative = 3.69586e-05
ExecutionTime = 153.881 s  ClockTime = 154 s

Time = 495s

DILUPBiCGStab:  Solving for Ux, Initial residual = 0.00992607, Final residual = 0.000622858, No Iterations 2
DILUPBiCGStab:  Solving for Uy, Initial residual = 0.0245107, Final residual = 0.00159563, No Iterations 2
DILUPBiCGStab:  Solving for Uz, Initial residual = 0.019859, Final residual = 0.00123523, No Iterations 2
GAMG:  Solving for p, Initial residual = 0.244731, Final residual = 0.0123653, No Iterations 2
time step continuity errors : sum local = 5.96886e-05, global = 1.37553e-06, cumulative = 3.83341e-05
ExecutionTime = 154.189 s  ClockTime = 154 s

Time = 496s

DILUPBiCGStab:  Solving for Ux, Initial residual = 0.0100977, Final residual = 0.000641402, No Iterations 2
DILUPBiCGStab:  Solving for Uy, Initial residual = 0.024702, Final residual = 0.0016166, No Iterations 2
DILUPBiCGStab:  Solving for Uz, Initial residual = 0.0201672, Final residual = 0.00126504, No Iterations 2
GAMG:  Solving for p, Initial residual = 0.242754, Final residual = 0.0125145, No Iterations 2
time step continuity errors : sum local = 6.18383e-05, global = 9.66722e-07, cumulative = 3.93009e-05
ExecutionTime = 154.497 s  ClockTime = 155 s

Time = 497s

DILUPBiCGStab:  Solving for Ux, Initial residual = 0.0105276, Final residual = 0.000667226, No Iterations 2
DILUPBiCGStab:  Solving for Uy, Initial residual = 0.0248654, Final residual = 0.00164564, No Iterations 2
DILUPBiCGStab:  Solving for Uz, Initial residual = 0.020451, Final residual = 0.00128822, No Iterations 2
GAMG:  Solving for p, Initial residual = 0.240324, Final residual = 0.012439, No Iterations 2
time step continuity errors : sum local = 6.33869e-05, global = 7.20282e-07, cumulative = 4.00211e-05
ExecutionTime = 154.807 s  ClockTime = 155 s

Time = 498s

DILUPBiCGStab:  Solving for Ux, Initial residual = 0.0112772, Final residual = 0.000709807, No Iterations 2
DILUPBiCGStab:  Solving for Uy, Initial residual = 0.0250093, Final residual = 0.00164724, No Iterations 2
DILUPBiCGStab:  Solving for Uz, Initial residual = 0.0207689, Final residual = 0.00131535, No Iterations 2
GAMG:  Solving for p, Initial residual = 0.235836, Final residual = 0.0105281, No Iterations 2
time step continuity errors : sum local = 5.52922e-05, global = 3.66737e-07, cumulative = 4.03879e-05
ExecutionTime = 155.116 s  ClockTime = 155 s

Time = 499s

DILUPBiCGStab:  Solving for Ux, Initial residual = 0.0116416, Final residual = 0.000727666, No Iterations 2
DILUPBiCGStab:  Solving for Uy, Initial residual = 0.0249298, Final residual = 0.00163461, No Iterations 2
DILUPBiCGStab:  Solving for Uz, Initial residual = 0.0209715, Final residual = 0.00133316, No Iterations 2
GAMG:  Solving for p, Initial residual = 0.234965, Final residual = 0.0103766, No Iterations 2
time step continuity errors : sum local = 5.5452e-05, global = -6.17413e-08, cumulative = 4.03261e-05
ExecutionTime = 155.424 s  ClockTime = 156 s

Time = 500s

DILUPBiCGStab:  Solving for Ux, Initial residual = 0.0116489, Final residual = 0.000731947, No Iterations 2
DILUPBiCGStab:  Solving for Uy, Initial residual = 0.0247601, Final residual = 0.00163022, No Iterations 2
DILUPBiCGStab:  Solving for Uz, Initial residual = 0.0210508, Final residual = 0.00134163, No Iterations 2
GAMG:  Solving for p, Initial residual = 0.234549, Final residual = 0.0110713, No Iterations 2
time step continuity errors : sum local = 5.9575e-05, global = -1.6055e-06, cumulative = 3.87206e-05
ExecutionTime = 155.843 s  ClockTime = 156 s

End

Finalising parallel run
